data_structure

_audit_creation_method RASPA-1.0
_audit_creation_date 2023-6-5
_audit_author_name 'Poobodin Mano'

_cell_length_a    31.9796
_cell_length_b    31.9472
_cell_length_c    33.2813
_cell_angle_alpha 89.5486
_cell_angle_beta  90.4514
_cell_angle_gamma 89.999
_cell_volume      34000

_symmetry_cell_setting          triclinic
_symmetry_space_group_name_Hall 'P 1'
_symmetry_space_group_name_H-M  'P 1'
_symmetry_Int_Tables_number     1

_symmetry_equiv_pos_as_xyz 'x,y,z'

loop_
_atom_site_label
_atom_site_type_symbol
_atom_site_fract_x
_atom_site_fract_y
_atom_site_fract_z
_atom_site_charge
C1       C      0.315650000000     0.394390000000     0.004450000000     0.413321   
C2       C      0.289060000000     0.270410000000     0.438930000000     0.410095   
C3       C      0.411250000000     0.308500000000     0.502860000000     0.414766   
C4       C      0.289620000000     0.267870000000     0.062410000000     0.413095   
C5       C      0.307800000000     0.567750000000     0.503530000000     0.410119   
C6       C      0.275220000000     0.693270000000     0.064200000000     0.414591   
C7       C      0.395140000000     0.660910000000     0.999140000000     0.409136   
C8       C      0.268500000000     0.688540000000     0.440170000000     0.41425    
C9       C      0.584400000000     0.316790000000     0.998710000000     0.408301   
C10      C      0.709390000000     0.290810000000     0.434450000000     0.415653   
C11      C      0.670120000000     0.411570000000     0.497990000000     0.409124   
C12      C      0.710590000000     0.289840000000     0.057990000000     0.411983   
C13      C      0.663810000000     0.584960000000     0.000150000000     0.414182   
C14      C      0.689610000000     0.710770000000     0.435540000000     0.414279   
C15      C      0.568140000000     0.670470000000     0.495040000000     0.415021   
C16      C      0.689360000000     0.710750000000     0.059200000000     0.41451    
C17      C      0.817000000000     0.084230000000     0.246620000000     0.408143   
C18      C      0.788620000000     0.208540000000     0.310090000000     0.410142   
C19      C      0.910500000000     0.171530000000     0.246800000000     0.41426    
C20      C      0.788030000000     0.209270000000     0.186690000000     0.407398   
C21      C      0.895840000000     0.815580000000     0.249910000000     0.408416   
C22      C      0.771230000000     0.788890000000     0.309040000000     0.409129   
C23      C      0.809990000000     0.910810000000     0.244210000000     0.414937   
C24      C      0.771000000000     0.788690000000     0.185810000000     0.409165   
C25      C      0.068930000000     0.806610000000     0.252780000000     0.414118   
C26      C      0.193810000000     0.772700000000     0.188980000000     0.409082   
C27      C      0.161220000000     0.894910000000     0.247850000000     0.408574   
C28      C      0.190530000000     0.769570000000     0.312080000000     0.408719   
C29      C      0.083690000000     0.163770000000     0.249800000000     0.408202   
C30      C      0.209010000000     0.188780000000     0.313440000000     0.414713   
C31      C      0.168450000000     0.068350000000     0.246790000000     0.414882   
C32      C      0.208980000000     0.190570000000     0.189850000000     0.407872   
C33      C      0.166840000000     0.959780000000     0.281610000000     0.033147   
C34      C      0.164100000000     0.958720000000     0.210910000000     0.0226354  
C35      C      0.168670000000     0.003340000000     0.280700000000     0.0309427  
C36      C      0.166110000000     0.002660000000     0.209530000000     0.0606866  
C37      C      0.960990000000     0.810910000000     0.216670000000     0.0330176  
C38      C      0.958950000000     0.808220000000     0.287350000000     0.0225129  
C39      C      0.004470000000     0.808340000000     0.218020000000     0.03073    
C40      C      0.002790000000     0.805500000000     0.289150000000     0.0608203  
C41      C      0.814970000000     0.018400000000     0.280030000000     0.0330128  
C42      C      0.809800000000     0.021480000000     0.209460000000     0.0224967  
C43      C      0.813070000000     0.974850000000     0.278770000000     0.0307734  
C44      C      0.807760000000     0.977570000000     0.207750000000     0.0607594  
C45      C      0.018280000000     0.163610000000     0.283020000000     0.0328315  
C46      C      0.020730000000     0.175000000000     0.213090000000     0.0226275  
C47      C      0.974750000000     0.165840000000     0.281630000000     0.0307945  
C48      C      0.976880000000     0.177370000000     0.211260000000     0.0605379  
C49      C      0.763290000000     0.732190000000     0.354760000000     0.0333248  
C50      C      0.716950000000     0.789360000000     0.357300000000     0.0228691  
C51      C      0.742390000000     0.713120000000     0.386590000000     0.0309516  
C52      C      0.695500000000     0.770430000000     0.389370000000     0.0607254  
C53      C      0.767270000000     0.736290000000     0.135850000000     0.0332751  
C54      C      0.712350000000     0.784870000000     0.141800000000     0.0230613  
C55      C      0.746310000000     0.717250000000     0.104030000000     0.0312216  
C56      C      0.690800000000     0.765900000000     0.109780000000     0.0606586  
C57      C      0.733470000000     0.214400000000     0.356990000000     0.0329989  
C58      C      0.786610000000     0.265370000000     0.355590000000     0.0225843  
C59      C      0.714020000000     0.235580000000     0.388160000000     0.0307468  
C60      C      0.767260000000     0.287130000000     0.386940000000     0.0606666  
C61      C      0.733700000000     0.214350000000     0.137980000000     0.0333776  
C62      C      0.786640000000     0.265540000000     0.139690000000     0.0230881  
C63      C      0.714890000000     0.234910000000     0.105500000000     0.0310863  
C64      C      0.767970000000     0.286650000000     0.106970000000     0.060615   
C65      C      0.666600000000     0.477290000000     0.464460000000     0.0331489  
C66      C      0.673700000000     0.474760000000     0.034900000000     0.0227379  
C67      C      0.665310000000     0.520860000000     0.465630000000     0.0307181  
C68      C      0.672610000000     0.518690000000     0.036520000000     0.0606849  
C69      C      0.243060000000     0.765870000000     0.362580000000     0.0334841  
C70      C      0.193920000000     0.711330000000     0.356800000000     0.0229673  
C71      C      0.262150000000     0.745050000000     0.394710000000     0.0311791  
C72      C      0.212840000000     0.689990000000     0.389290000000     0.0608589  
C73      C      0.197320000000     0.719710000000     0.139530000000     0.0331274  
C74      C      0.252570000000     0.767920000000     0.146120000000     0.0228236  
C75      C      0.218360000000     0.700120000000     0.108330000000     0.030861   
C76      C      0.274130000000     0.748490000000     0.114700000000     0.060543   
C77      C      0.461320000000     0.661450000000     0.031730000000     0.0332602  
C78      C      0.457180000000     0.671260000000     0.461610000000     0.0228568  
C79      C      0.504730000000     0.664200000000     0.030080000000     0.0311233  
C80      C      0.500980000000     0.674080000000     0.459510000000     0.0607751  
C81      C      0.233680000000     0.264860000000     0.391410000000     0.0329483  
C82      C      0.286650000000     0.213690000000     0.393270000000     0.0226187  
C83      C      0.213990000000     0.243800000000     0.360000000000     0.0307035  
C84      C      0.267080000000     0.192080000000     0.361650000000     0.0604946  
C85      C      0.214860000000     0.245500000000     0.141950000000     0.0333485  
C86      C      0.264810000000     0.191330000000     0.143230000000     0.0231031  
C87      C      0.235420000000     0.264260000000     0.109780000000     0.0313183  
C88      C      0.285960000000     0.210010000000     0.110850000000     0.0607593  
C89      C      0.518260000000     0.315060000000     0.465920000000     0.0328335  
C90      C      0.522220000000     0.307820000000     0.036290000000     0.0226206  
C91      C      0.474780000000     0.312860000000     0.467610000000     0.0307129  
C92      C      0.478410000000     0.305400000000     0.038440000000     0.0604205  
C93      C      0.312090000000     0.502910000000     0.469640000000     0.0331311  
C94      C      0.303990000000     0.503600000000     0.039880000000     0.0227089  
C95      C      0.313860000000     0.459350000000     0.470480000000     0.0306492  
C96      C      0.305660000000     0.459630000000     0.041160000000     0.0604745  
C97      C      0.315650000000     0.394390000000     0.504450000000     0.4132     
C98      C      0.289060000000     0.270410000000     0.938930000000     0.410105   
C99      C      0.411250000000     0.308500000000     0.002860000000     0.414886   
C100     C      0.289620000000     0.267870000000     0.562410000000     0.413049   
C101     C      0.307800000000     0.567750000000     0.003530000000     0.410245   
C102     C      0.275220000000     0.693270000000     0.564200000000     0.414583   
C103     C      0.395140000000     0.660910000000     0.499140000000     0.409193   
C104     C      0.268500000000     0.688540000000     0.940170000000     0.414261   
C105     C      0.584400000000     0.316790000000     0.498710000000     0.408428   
C106     C      0.709390000000     0.290810000000     0.934450000000     0.41565    
C107     C      0.670120000000     0.411570000000     0.997990000000     0.40905    
C108     C      0.710590000000     0.289840000000     0.557990000000     0.41199    
C109     C      0.663810000000     0.584960000000     0.500150000000     0.414068   
C110     C      0.689610000000     0.710770000000     0.935540000000     0.414276   
C111     C      0.568140000000     0.670470000000     0.995040000000     0.414948   
C112     C      0.689360000000     0.710750000000     0.559200000000     0.414516   
C113     C      0.817000000000     0.084230000000     0.746620000000     0.408141   
C114     C      0.788620000000     0.208540000000     0.810090000000     0.410143   
C115     C      0.910500000000     0.171530000000     0.746800000000     0.414255   
C116     C      0.788030000000     0.209270000000     0.686690000000     0.407593   
C117     C      0.895840000000     0.815580000000     0.749910000000     0.408416   
C118     C      0.771230000000     0.788890000000     0.809040000000     0.409131   
C119     C      0.809990000000     0.910810000000     0.744210000000     0.414938   
C120     C      0.771000000000     0.788690000000     0.685810000000     0.409162   
C121     C      0.068930000000     0.806610000000     0.752780000000     0.414118   
C122     C      0.193810000000     0.772700000000     0.688980000000     0.40908    
C123     C      0.161220000000     0.894910000000     0.747850000000     0.408574   
C124     C      0.190530000000     0.769580000000     0.812080000000     0.408695   
C125     C      0.083690000000     0.163770000000     0.749800000000     0.408468   
C126     C      0.209010000000     0.188780000000     0.813440000000     0.414716   
C127     C      0.168450000000     0.068350000000     0.746790000000     0.414884   
C128     C      0.208980000000     0.190570000000     0.689850000000     0.40787    
C129     C      0.166840000000     0.959770000000     0.781610000000     0.0331735  
C130     C      0.164100000000     0.958720000000     0.710910000000     0.0226322  
C131     C      0.168670000000     0.003340000000     0.780700000000     0.0309372  
C132     C      0.166110000000     0.002660000000     0.709530000000     0.0606904  
C133     C      0.960990000000     0.810910000000     0.716670000000     0.0330123  
C134     C      0.958950000000     0.808220000000     0.787350000000     0.0225104  
C135     C      0.004470000000     0.808340000000     0.718020000000     0.0307288  
C136     C      0.002790000000     0.805500000000     0.789150000000     0.0608206  
C137     C      0.814970000000     0.018400000000     0.780030000000     0.0330118  
C138     C      0.809800000000     0.021480000000     0.709460000000     0.0224912  
C139     C      0.813070000000     0.974850000000     0.778770000000     0.0307729  
C140     C      0.807760000000     0.977570000000     0.707750000000     0.0607647  
C141     C      0.018280000000     0.163610000000     0.783020000000     0.0328432  
C142     C      0.020730000000     0.175000000000     0.713090000000     0.0226386  
C143     C      0.974750000000     0.165840000000     0.781630000000     0.0307867  
C144     C      0.976880000000     0.177370000000     0.711260000000     0.0605344  
C145     C      0.763290000000     0.732190000000     0.854760000000     0.0333095  
C146     C      0.716950000000     0.789350000000     0.857300000000     0.0229183  
C147     C      0.742390000000     0.713120000000     0.886590000000     0.0309561  
C148     C      0.695500000000     0.770430000000     0.889370000000     0.0607     
C149     C      0.767270000000     0.736290000000     0.635850000000     0.0332669  
C150     C      0.712350000000     0.784870000000     0.641800000000     0.0230526  
C151     C      0.746310000000     0.717250000000     0.604030000000     0.0312156  
C152     C      0.690800000000     0.765900000000     0.609780000000     0.0606615  
C153     C      0.733470000000     0.214400000000     0.856990000000     0.0329986  
C154     C      0.786610000000     0.265370000000     0.855590000000     0.0225835  
C155     C      0.714020000000     0.235580000000     0.888160000000     0.0307459  
C156     C      0.767260000000     0.287130000000     0.886940000000     0.0606664  
C157     C      0.733700000000     0.214350000000     0.637980000000     0.0333783  
C158     C      0.786640000000     0.265540000000     0.639690000000     0.0230905  
C159     C      0.714890000000     0.234910000000     0.605500000000     0.0310744  
C160     C      0.767970000000     0.286650000000     0.606970000000     0.0606143  
C161     C      0.666600000000     0.477290000000     0.964450000000     0.033078   
C162     C      0.673700000000     0.474760000000     0.534900000000     0.0226634  
C163     C      0.665310000000     0.520860000000     0.965630000000     0.0306999  
C164     C      0.672610000000     0.518690000000     0.536520000000     0.0606826  
C165     C      0.243060000000     0.765870000000     0.862580000000     0.0334301  
C166     C      0.193920000000     0.711330000000     0.856800000000     0.0230119  
C167     C      0.262150000000     0.745050000000     0.894710000000     0.0312001  
C168     C      0.212840000000     0.689990000000     0.889280000000     0.0608198  
C169     C      0.197320000000     0.719710000000     0.639530000000     0.0331214  
C170     C      0.252570000000     0.767920000000     0.646120000000     0.0228162  
C171     C      0.218360000000     0.700120000000     0.608330000000     0.0308536  
C172     C      0.274130000000     0.748490000000     0.614700000000     0.0605447  
C173     C      0.461320000000     0.661450000000     0.531730000000     0.0332023  
C174     C      0.457180000000     0.671260000000     0.961610000000     0.0228235  
C175     C      0.504730000000     0.664200000000     0.530080000000     0.0310612  
C176     C      0.500980000000     0.674080000000     0.959510000000     0.0607808  
C177     C      0.233680000000     0.264860000000     0.891410000000     0.032951   
C178     C      0.286650000000     0.213690000000     0.893270000000     0.0226193  
C179     C      0.213990000000     0.243800000000     0.860010000000     0.0306843  
C180     C      0.267080000000     0.192080000000     0.861650000000     0.0604935  
C181     C      0.214860000000     0.245500000000     0.641950000000     0.0333445  
C182     C      0.264810000000     0.191330000000     0.643230000000     0.0230956  
C183     C      0.235420000000     0.264260000000     0.609780000000     0.0313067  
C184     C      0.285960000000     0.210010000000     0.610850000000     0.0607615  
C185     C      0.518260000000     0.315060000000     0.965920000000     0.0327833  
C186     C      0.522220000000     0.307820000000     0.536300000000     0.0225238  
C187     C      0.474780000000     0.312860000000     0.967610000000     0.0306689  
C188     C      0.478410000000     0.305400000000     0.538440000000     0.0604425  
C189     C      0.312090000000     0.502910000000     0.969640000000     0.0330647  
C190     C      0.303990000000     0.503600000000     0.539880000000     0.0226407  
C191     C      0.313860000000     0.459350000000     0.970480000000     0.0306666  
C192     C      0.305660000000     0.459630000000     0.541160000000     0.0605244  
H1       H      0.170380000000     0.019120000000     0.309400000000     0.0464615  
H2       H      0.167220000000     0.944190000000     0.310680000000     0.0453797  
H3       H      0.162390000000     0.941510000000     0.182890000000     0.0487912  
H4       H      0.020650000000     0.808690000000     0.189500000000     0.0462675  
H5       H      0.945840000000     0.812980000000     0.187450000000     0.0450988  
H6       H      0.941380000000     0.807860000000     0.315180000000     0.0490115  
H7       H      0.814610000000     0.958230000000     0.307290000000     0.0462394  
H8       H      0.817820000000     0.033150000000     0.309170000000     0.0445789  
H9       H      0.808310000000     0.039480000000     0.181630000000     0.0494608  
H10      H      0.958360000000     0.161820000000     0.309810000000     0.0457906  
H11      H      0.033290000000     0.158120000000     0.311920000000     0.0442873  
H12      H      0.038450000000     0.178950000000     0.185580000000     0.0496742  
H13      H      0.754060000000     0.682930000000     0.396750000000     0.0465987  
H14      H      0.789830000000     0.715970000000     0.342050000000     0.0448895  
H15      H      0.706420000000     0.819660000000     0.346080000000     0.0493197  
H16      H      0.761470000000     0.690570000000     0.090400000000     0.0465585  
H17      H      0.797320000000     0.723580000000     0.145100000000     0.045299   
H18      H      0.698410000000     0.811760000000     0.156400000000     0.0491319  
H19      H      0.685350000000     0.222110000000     0.399720000000     0.0460568  
H20      H      0.719030000000     0.185890000000     0.346100000000     0.044621   
H21      H      0.815420000000     0.277690000000     0.343020000000     0.0489613  
H22      H      0.686500000000     0.221170000000     0.093380000000     0.0468736  
H23      H      0.719150000000     0.185950000000     0.149190000000     0.0453195  
H24      H      0.815210000000     0.278090000000     0.152790000000     0.0496291  
H25      H      0.661810000000     0.537260000000     0.437140000000     0.0462532  
H26      H      0.664150000000     0.462290000000     0.435410000000     0.0446861  
H27      H      0.677270000000     0.456980000000     0.062710000000     0.049535   
H28      H      0.289060000000     0.760140000000     0.408380000000     0.0470173  
H29      H      0.256040000000     0.795700000000     0.353120000000     0.0456622  
H30      H      0.166830000000     0.697480000000     0.342100000000     0.0489721  
H31      H      0.203080000000     0.673440000000     0.094600000000     0.0462626  
H32      H      0.167160000000     0.707300000000     0.148340000000     0.044957   
H33      H      0.266710000000     0.794770000000     0.160820000000     0.0490519  
H34      H      0.521730000000     0.661040000000     0.058280000000     0.0464837  
H35      H      0.447040000000     0.656470000000     0.060830000000     0.0449492  
H36      H      0.438790000000     0.674350000000     0.434130000000     0.04935    
H37      H      0.185310000000     0.257400000000     0.348160000000     0.0460436  
H38      H      0.219380000000     0.293380000000     0.402210000000     0.0446459  
H39      H      0.315470000000     0.201230000000     0.406130000000     0.0489528  
H40      H      0.222170000000     0.293130000000     0.097960000000     0.0470779  
H41      H      0.186960000000     0.260570000000     0.153200000000     0.0455252  
H42      H      0.276860000000     0.162310000000     0.156070000000     0.049462   
H43      H      0.457800000000     0.315150000000     0.439330000000     0.0458453  
H44      H      0.532640000000     0.318890000000     0.436710000000     0.0444237  
H45      H      0.540550000000     0.305600000000     0.063890000000     0.0492048  
H46      H      0.317920000000     0.443720000000     0.441950000000     0.045994   
H47      H      0.314780000000     0.518650000000     0.440770000000     0.0447274  
H48      H      0.299860000000     0.520650000000     0.067720000000     0.0487735  
H49      H      0.170380000000     0.019120000000     0.809400000000     0.0464636  
H50      H      0.167220000000     0.944190000000     0.810680000000     0.045368   
H51      H      0.162390000000     0.941510000000     0.682890000000     0.0487823  
H52      H      0.020650000000     0.808690000000     0.689500000000     0.0462573  
H53      H      0.945840000000     0.812980000000     0.687450000000     0.0450886  
H54      H      0.941380000000     0.807860000000     0.815180000000     0.0490124  
H55      H      0.814610000000     0.958230000000     0.807290000000     0.0462401  
H56      H      0.817820000000     0.033150000000     0.809170000000     0.0445799  
H57      H      0.808310000000     0.039480000000     0.681630000000     0.0494532  
H58      H      0.958360000000     0.161820000000     0.809810000000     0.0457926  
H59      H      0.033290000000     0.158120000000     0.811920000000     0.0442822  
H60      H      0.038450000000     0.178950000000     0.685580000000     0.0496592  
H61      H      0.754060000000     0.682930000000     0.896750000000     0.0465973  
H62      H      0.789830000000     0.715980000000     0.842050000000     0.0448975  
H63      H      0.706420000000     0.819660000000     0.846080000000     0.0493063  
H64      H      0.761470000000     0.690570000000     0.590400000000     0.0465443  
H65      H      0.797320000000     0.723580000000     0.645110000000     0.0452969  
H66      H      0.698410000000     0.811760000000     0.656400000000     0.0491281  
H67      H      0.685350000000     0.222110000000     0.899720000000     0.046056   
H68      H      0.719030000000     0.185890000000     0.846100000000     0.0446203  
H69      H      0.815420000000     0.277690000000     0.843020000000     0.0489594  
H70      H      0.686500000000     0.221170000000     0.593390000000     0.0468557  
H71      H      0.719150000000     0.185950000000     0.649190000000     0.0453079  
H72      H      0.815210000000     0.278090000000     0.652790000000     0.0496207  
H73      H      0.661810000000     0.537260000000     0.937140000000     0.0462518  
H74      H      0.664150000000     0.462290000000     0.935410000000     0.0447045  
H75      H      0.677270000000     0.456980000000     0.562710000000     0.0495411  
H76      H      0.289060000000     0.760140000000     0.908380000000     0.0470119  
H77      H      0.256040000000     0.795700000000     0.853120000000     0.0456748  
H78      H      0.166830000000     0.697480000000     0.842100000000     0.0489625  
H79      H      0.203080000000     0.673440000000     0.594600000000     0.0462492  
H80      H      0.167160000000     0.707300000000     0.648340000000     0.0449491  
H81      H      0.266710000000     0.794770000000     0.660820000000     0.0490485  
H82      H      0.521730000000     0.661040000000     0.558280000000     0.0464863  
H83      H      0.447040000000     0.656470000000     0.560830000000     0.0449511  
H84      H      0.438790000000     0.674350000000     0.934140000000     0.0493616  
H85      H      0.185310000000     0.257400000000     0.848160000000     0.046052   
H86      H      0.219380000000     0.293380000000     0.902210000000     0.0446431  
H87      H      0.315470000000     0.201230000000     0.906130000000     0.0489512  
H88      H      0.222170000000     0.293130000000     0.597960000000     0.047064   
H89      H      0.186960000000     0.260570000000     0.653200000000     0.0455183  
H90      H      0.276860000000     0.162310000000     0.656070000000     0.049458   
H91      H      0.457800000000     0.315150000000     0.939330000000     0.0458496  
H92      H      0.532640000000     0.318890000000     0.936710000000     0.0444329  
H93      H      0.540550000000     0.305600000000     0.563890000000     0.049223   
H94      H      0.317920000000     0.443720000000     0.941950000000     0.045983   
H95      H      0.314780000000     0.518650000000     0.940770000000     0.0447368  
H96      H      0.299860000000     0.520650000000     0.567710000000     0.0487882  
In1      In     0.326330000000     0.310200000000     0.501190000000     2.42566    
In2      In     0.311120000000     0.652380000000     0.502090000000     2.42496    
In3      In     0.668360000000     0.326950000000     0.496390000000     2.42282    
In4      In     0.652990000000     0.669190000000     0.497340000000     2.43275    
In5      In     0.825670000000     0.168410000000     0.248480000000     2.4198     
In6      In     0.811930000000     0.825840000000     0.247320000000     2.42202    
In7      In     0.153650000000     0.810610000000     0.250000000000     2.42288    
In8      In     0.167600000000     0.153190000000     0.250810000000     2.424      
In9      In     0.326330000000     0.310200000000     0.001190000000     2.42586    
In10     In     0.311120000000     0.652380000000     0.002090000000     2.42526    
In11     In     0.668360000000     0.326950000000     0.996390000000     2.42267    
In12     In     0.652990000000     0.669190000000     0.997340000000     2.43261    
In13     In     0.825670000000     0.168410000000     0.748480000000     2.41983    
In14     In     0.811930000000     0.825840000000     0.747320000000     2.42201    
In15     In     0.153650000000     0.810610000000     0.750000000000     2.42287    
In16     In     0.167600000000     0.153190000000     0.750810000000     2.42411    
N1       N      0.164170000000     0.937630000000     0.246800000000    -0.174833   
N2       N      0.167900000000     0.025210000000     0.245010000000    -0.178754   
N3       N      0.938430000000     0.811440000000     0.251290000000    -0.17475    
N4       N      0.025810000000     0.806470000000     0.253960000000    -0.178824   
N5       N      0.813780000000     0.041540000000     0.245420000000    -0.174761   
N6       N      0.810030000000     0.954000000000     0.242930000000    -0.178907   
N7       N      0.041070000000     0.167630000000     0.248720000000    -0.174767   
N8       N      0.953630000000     0.171920000000     0.245970000000    -0.178762   
N9       N      0.750570000000     0.770200000000     0.340250000000    -0.174857   
N10      N      0.708520000000     0.731770000000     0.404170000000    -0.178543   
N11      N      0.750280000000     0.770000000000     0.154620000000    -0.17484    
N12      N      0.708110000000     0.731570000000     0.090730000000    -0.178552   
N13      N      0.769660000000     0.229300000000     0.340820000000    -0.175315   
N14      N      0.730470000000     0.271900000000     0.403430000000    -0.179088   
N15      N      0.769450000000     0.229690000000     0.154970000000    -0.174332   
N16      N      0.731500000000     0.271090000000     0.089790000000    -0.177865   
N17      N      0.670240000000     0.454380000000     0.499070000000    -0.174903   
N18      N      0.667560000000     0.541940000000     0.001390000000    -0.178723   
N19      N      0.209110000000     0.748980000000     0.343690000000    -0.174684   
N20      N      0.247510000000     0.707150000000     0.408370000000    -0.178593   
N21      N      0.214440000000     0.753510000000     0.158290000000    -0.174863   
N22      N      0.256640000000     0.714160000000     0.095520000000    -0.178686   
N23      N      0.437720000000     0.664600000000     0.997510000000    -0.174789   
N24      N      0.525010000000     0.669890000000     0.494230000000    -0.178867   
N25      N      0.269910000000     0.249800000000     0.407920000000    -0.175288   
N26      N      0.230260000000     0.207480000000     0.344790000000    -0.178911   
N27      N      0.229540000000     0.209120000000     0.158530000000    -0.174459   
N28      N      0.270970000000     0.247020000000     0.093990000000    -0.178202   
N29      N      0.541800000000     0.313050000000     0.000250000000    -0.174858   
N30      N      0.454410000000     0.308650000000     0.503600000000    -0.178784   
N31      N      0.307750000000     0.524910000000     0.504330000000    -0.175212   
N32      N      0.311450000000     0.437340000000     0.005980000000    -0.178476   
N33      N      0.164170000000     0.937630000000     0.746800000000    -0.174843   
N34      N      0.167900000000     0.025210000000     0.745010000000    -0.178756   
N35      N      0.938430000000     0.811440000000     0.751290000000    -0.174751   
N36      N      0.025810000000     0.806470000000     0.753960000000    -0.178826   
N37      N      0.813780000000     0.041540000000     0.745420000000    -0.174761   
N38      N      0.810030000000     0.954000000000     0.742930000000    -0.178909   
N39      N      0.041070000000     0.167630000000     0.748720000000    -0.174822   
N40      N      0.953630000000     0.171920000000     0.745970000000    -0.178761   
N41      N      0.750570000000     0.770200000000     0.840250000000    -0.174868   
N42      N      0.708520000000     0.731770000000     0.904170000000    -0.17854    
N43      N      0.750280000000     0.770000000000     0.654620000000    -0.174842   
N44      N      0.708110000000     0.731570000000     0.590730000000    -0.17856    
N45      N      0.769660000000     0.229300000000     0.840820000000    -0.175316   
N46      N      0.730470000000     0.271900000000     0.903430000000    -0.179088   
N47      N      0.769450000000     0.229690000000     0.654970000000    -0.174371   
N48      N      0.731500000000     0.271090000000     0.589790000000    -0.17787    
N49      N      0.670240000000     0.454380000000     0.999070000000    -0.174901   
N50      N      0.667560000000     0.541940000000     0.501390000000    -0.178757   
N51      N      0.209110000000     0.748970000000     0.843690000000    -0.17463    
N52      N      0.247510000000     0.707150000000     0.908370000000    -0.178586   
N53      N      0.214440000000     0.753510000000     0.658290000000    -0.174864   
N54      N      0.256640000000     0.714160000000     0.595520000000    -0.17869    
N55      N      0.437720000000     0.664600000000     0.497510000000    -0.174774   
N56      N      0.525010000000     0.669890000000     0.994230000000    -0.178886   
N57      N      0.269910000000     0.249800000000     0.907920000000    -0.175292   
N58      N      0.230260000000     0.207480000000     0.844790000000    -0.178905   
N59      N      0.229540000000     0.209120000000     0.658530000000    -0.17446    
N60      N      0.270970000000     0.247020000000     0.593990000000    -0.178202   
N61      N      0.541800000000     0.313050000000     0.500250000000    -0.174929   
N62      N      0.454410000000     0.308650000000     0.003600000000    -0.178748   
N63      N      0.307750000000     0.524910000000     0.004330000000    -0.175187   
N64      N      0.311450000000     0.437340000000     0.505990000000    -0.178505   
O1       O      0.274510000000     0.300960000000     0.047110000000    -0.496897   
O2       O      0.323280000000     0.256330000000     0.046380000000    -0.495078   
O3       O      0.274520000000     0.303520000000     0.453880000000    -0.499019   
O4       O      0.320030000000     0.374870000000     0.471840000000    -0.498719   
O5       O      0.389050000000     0.306610000000     0.033940000000    -0.498028   
O6       O      0.316640000000     0.371010000000     0.035140000000    -0.496598   
O7       O      0.322580000000     0.257680000000     0.455170000000    -0.500746   
O8       O      0.390200000000     0.311190000000     0.470630000000    -0.499177   
O9       O      0.258140000000     0.653980000000     0.455740000000    -0.497707   
O10      O      0.300450000000     0.704780000000     0.456310000000    -0.499015   
O11      O      0.258820000000     0.661690000000     0.047710000000    -0.498617   
O12      O      0.304710000000     0.589580000000     0.034860000000    -0.49804    
O13      O      0.371970000000     0.663500000000     0.468320000000    -0.495083   
O14      O      0.311990000000     0.588700000000     0.471500000000    -0.499595   
O15      O      0.309730000000     0.703770000000     0.049110000000    -0.499453   
O16      O      0.375830000000     0.654180000000     0.031520000000    -0.497049   
O17      O      0.677930000000     0.274350000000     0.042410000000    -0.495489   
O18      O      0.721640000000     0.324000000000     0.042070000000    -0.494583   
O19      O      0.676500000000     0.275630000000     0.449510000000    -0.501099   
O20      O      0.604000000000     0.321900000000     0.466230000000    -0.496968   
O21      O      0.672460000000     0.389130000000     0.029320000000    -0.496268   
O22      O      0.607280000000     0.316310000000     0.029810000000    -0.497791   
O23      O      0.720960000000     0.324450000000     0.450640000000    -0.500864   
O24      O      0.667050000000     0.391260000000     0.465690000000    -0.496359   
O25      O      0.706460000000     0.680190000000     0.041860000000    -0.500594   
O26      O      0.653810000000     0.719960000000     0.045050000000    -0.497698   
O27      O      0.657920000000     0.724200000000     0.453690000000    -0.499987   
O28      O      0.659420000000     0.605280000000     0.467640000000    -0.498897   
O29      O      0.590450000000     0.672580000000     0.964020000000    -0.498863   
O30      O      0.663090000000     0.607600000000     0.030990000000    -0.499801   
O31      O      0.702700000000     0.675910000000     0.448780000000    -0.498938   
O32      O      0.589060000000     0.667850000000     0.527330000000    -0.499207   
O33      O      0.773370000000     0.176050000000     0.201860000000    -0.493553   
O34      O      0.821480000000     0.221940000000     0.202970000000    -0.494565   
O35      O      0.773840000000     0.175530000000     0.294940000000    -0.498973   
O36      O      0.821030000000     0.104210000000     0.279040000000    -0.496352   
O37      O      0.890070000000     0.167820000000     0.279000000000    -0.49768    
O38      O      0.816930000000     0.106820000000     0.215320000000    -0.496437   
O39      O      0.822230000000     0.221020000000     0.294340000000    -0.500602   
O40      O      0.887720000000     0.173660000000     0.215770000000    -0.497354   
O41      O      0.756780000000     0.820230000000     0.203820000000    -0.498742   
O42      O      0.805940000000     0.775870000000     0.198910000000    -0.495506   
O43      O      0.802190000000     0.772220000000     0.292070000000    -0.497962   
O44      O      0.873700000000     0.817050000000     0.281120000000    -0.49812    
O45      O      0.809080000000     0.888100000000     0.213410000000    -0.499091   
O46      O      0.875540000000     0.818990000000     0.217340000000    -0.495203   
O47      O      0.760920000000     0.824220000000     0.294850000000    -0.496939   
O48      O      0.811750000000     0.890250000000     0.276770000000    -0.498013   
O49      O      0.159210000000     0.755180000000     0.293410000000    -0.498534   
O50      O      0.203260000000     0.804620000000     0.299280000000    -0.494845   
O51      O      0.208610000000     0.803880000000     0.207330000000    -0.501149   
O52      O      0.089070000000     0.806770000000     0.220240000000    -0.497239   
O53      O      0.161280000000     0.874080000000     0.280260000000    -0.493639   
O54      O      0.091960000000     0.808120000000     0.283650000000    -0.500395   
O55      O      0.158500000000     0.760660000000     0.201330000000    -0.494998   
O56      O      0.157630000000     0.873100000000     0.216510000000    -0.49898    
O57      O      0.176430000000     0.205990000000     0.205110000000    -0.494449   
O58      O      0.220760000000     0.156410000000     0.205610000000    -0.495813   
O59      O      0.220740000000     0.155500000000     0.296830000000    -0.499575   
O60      O      0.104000000000     0.156300000000     0.281780000000    -0.497047   
O61      O      0.167140000000     0.091920000000     0.216260000000    -0.498824   
O62      O      0.105850000000     0.166410000000     0.218650000000    -0.496482   
O63      O      0.175800000000     0.203870000000     0.298420000000    -0.501304   
O64      O      0.169600000000     0.087990000000     0.279610000000    -0.497815   
O65      O      0.274510000000     0.300960000000     0.547100000000    -0.496936   
O66      O      0.323280000000     0.256330000000     0.546380000000    -0.495059   
O67      O      0.274520000000     0.303520000000     0.953880000000    -0.49907    
O68      O      0.320030000000     0.374870000000     0.971840000000    -0.498815   
O69      O      0.389050000000     0.306610000000     0.533940000000    -0.497995   
O70      O      0.316640000000     0.371010000000     0.535140000000    -0.496556   
O71      O      0.322580000000     0.257680000000     0.955170000000    -0.500789   
O72      O      0.390200000000     0.311190000000     0.970630000000    -0.499272   
O73      O      0.258140000000     0.653980000000     0.955740000000    -0.497754   
O74      O      0.300450000000     0.704780000000     0.956310000000    -0.499063   
O75      O      0.258820000000     0.661690000000     0.547710000000    -0.498614   
O76      O      0.304710000000     0.589580000000     0.534860000000    -0.497997   
O77      O      0.371970000000     0.663500000000     0.968320000000    -0.495114   
O78      O      0.311990000000     0.588700000000     0.971500000000    -0.499702   
O79      O      0.309730000000     0.703770000000     0.549110000000    -0.499446   
O80      O      0.375830000000     0.654180000000     0.531520000000    -0.497082   
O81      O      0.677930000000     0.274350000000     0.542410000000    -0.495541   
O82      O      0.721640000000     0.324000000000     0.542070000000    -0.494636   
O83      O      0.676500000000     0.275630000000     0.949510000000    -0.50109    
O84      O      0.604000000000     0.321900000000     0.966230000000    -0.49693    
O85      O      0.672460000000     0.389130000000     0.529320000000    -0.496362   
O86      O      0.607280000000     0.316310000000     0.529810000000    -0.497895   
O87      O      0.720960000000     0.324450000000     0.950640000000    -0.500855   
O88      O      0.667050000000     0.391260000000     0.965690000000    -0.496331   
O89      O      0.706460000000     0.680190000000     0.541860000000    -0.50065    
O90      O      0.653810000000     0.719960000000     0.545050000000    -0.497749   
O91      O      0.657920000000     0.724200000000     0.953690000000    -0.499979   
O92      O      0.659420000000     0.605280000000     0.967640000000    -0.498949   
O93      O      0.590450000000     0.672580000000     0.464020000000    -0.498889   
O94      O      0.663090000000     0.607600000000     0.530990000000    -0.499815   
O95      O      0.702700000000     0.675910000000     0.948780000000    -0.498929   
O96      O      0.589060000000     0.667850000000     0.027330000000    -0.499113   
O97      O      0.773370000000     0.176050000000     0.701860000000    -0.493608   
O98      O      0.821480000000     0.221930000000     0.702960000000    -0.49469    
O99      O      0.773840000000     0.175530000000     0.794940000000    -0.498978   
O100     O      0.821030000000     0.104210000000     0.779040000000    -0.496354   
O101     O      0.890070000000     0.167820000000     0.779000000000    -0.497683   
O102     O      0.816930000000     0.106820000000     0.715320000000    -0.496441   
O103     O      0.822230000000     0.221020000000     0.794340000000    -0.500616   
O104     O      0.887720000000     0.173660000000     0.715770000000    -0.497348   
O105     O      0.756780000000     0.820230000000     0.703820000000    -0.498745   
O106     O      0.805940000000     0.775870000000     0.698910000000    -0.495513   
O107     O      0.802190000000     0.772220000000     0.792070000000    -0.497964   
O108     O      0.873700000000     0.817050000000     0.781120000000    -0.49812    
O109     O      0.809080000000     0.888100000000     0.713410000000    -0.499096   
O110     O      0.875540000000     0.818990000000     0.717340000000    -0.49521    
O111     O      0.760920000000     0.824220000000     0.794850000000    -0.49694    
O112     O      0.811750000000     0.890250000000     0.776770000000    -0.498013   
O113     O      0.159210000000     0.755180000000     0.793410000000    -0.498494   
O114     O      0.203260000000     0.804620000000     0.799280000000    -0.494913   
O115     O      0.208610000000     0.803880000000     0.707330000000    -0.501149   
O116     O      0.089070000000     0.806770000000     0.720240000000    -0.497245   
O117     O      0.161280000000     0.874080000000     0.780260000000    -0.493638   
O118     O      0.091960000000     0.808120000000     0.783650000000    -0.500397   
O119     O      0.158500000000     0.760660000000     0.701330000000    -0.495002   
O120     O      0.157630000000     0.873100000000     0.716510000000    -0.498986   
O121     O      0.176430000000     0.205990000000     0.705110000000    -0.494457   
O122     O      0.220760000000     0.156410000000     0.705610000000    -0.495827   
O123     O      0.220740000000     0.155500000000     0.796830000000    -0.499587   
O124     O      0.104000000000     0.156300000000     0.781780000000    -0.497114   
O125     O      0.167140000000     0.091920000000     0.716260000000    -0.498838   
O126     O      0.105850000000     0.166410000000     0.718660000000    -0.496695   
O127     O      0.175800000000     0.203870000000     0.798420000000    -0.50131    
O128     O      0.169600000000     0.087990000000     0.779610000000    -0.497824   
S1       S      0.166320000000     0.023920000000     0.166030000000     0.0208578  
S2       S      0.023380000000     0.800530000000     0.332720000000     0.0205131  
S3       S      0.802380000000     0.957560000000     0.164280000000     0.0207     
S4       S      0.956570000000     0.187290000000     0.168320000000     0.02199    
S5       S      0.656810000000     0.795650000000     0.406990000000     0.0215524  
S6       S      0.647000000000     0.786100000000     0.097120000000     0.0220545  
S7       S      0.789840000000     0.328810000000     0.401770000000     0.0208095  
S8       S      0.791080000000     0.327780000000     0.091240000000     0.0225314  
S9       S      0.677980000000     0.539150000000     0.079800000000     0.0209296  
S10      S      0.192560000000     0.646330000000     0.402070000000     0.0208095  
S11      S      0.318550000000     0.767730000000     0.103350000000     0.0216918  
S12      S      0.520330000000     0.682970000000     0.416270000000     0.0211575  
S13      S      0.289300000000     0.150220000000     0.347110000000     0.0211029  
S14      S      0.326480000000     0.186330000000     0.095140000000     0.0221174  
S15      S      0.459020000000     0.298430000000     0.081980000000     0.0220649  
S16      S      0.299920000000     0.437980000000     0.084090000000     0.0216738  
S17      S      0.166320000000     0.023920000000     0.666030000000     0.0208217  
S18      S      0.023380000000     0.800530000000     0.832720000000     0.0205154  
S19      S      0.802380000000     0.957560000000     0.664280000000     0.0206628  
S20      S      0.956570000000     0.187290000000     0.668320000000     0.0219599  
S21      S      0.656810000000     0.795650000000     0.906990000000     0.0215575  
S22      S      0.647000000000     0.786100000000     0.597120000000     0.0220112  
S23      S      0.789840000000     0.328810000000     0.901770000000     0.020806   
S24      S      0.791080000000     0.327780000000     0.591240000000     0.0224849  
S25      S      0.677980000000     0.539150000000     0.579800000000     0.0209067  
S26      S      0.192560000000     0.646330000000     0.902070000000     0.0208249  
S27      S      0.318550000000     0.767730000000     0.603350000000     0.0216535  
S28      S      0.520330000000     0.682970000000     0.916270000000     0.0211538  
S29      S      0.289300000000     0.150220000000     0.847110000000     0.0211017  
S30      S      0.326480000000     0.186330000000     0.595140000000     0.0220751  
S31      S      0.459020000000     0.298430000000     0.581980000000     0.0220394  
S32      S      0.299920000000     0.437980000000     0.584090000000     0.0216426  


