data_structure

_audit_creation_method RASPA-1.0
_audit_creation_date 2023-6-5
_audit_author_name 'Poobodin Mano'

_cell_length_a    31.9143
_cell_length_b    31.9142
_cell_length_c    33.1097
_cell_angle_alpha 89.5671
_cell_angle_beta  90.433
_cell_angle_gamma 89.9991
_cell_volume      33720.9

_symmetry_cell_setting          triclinic
_symmetry_space_group_name_Hall 'P 1'
_symmetry_space_group_name_H-M  'P 1'
_symmetry_Int_Tables_number     1

_symmetry_equiv_pos_as_xyz 'x,y,z'

loop_
_atom_site_label
_atom_site_type_symbol
_atom_site_fract_x
_atom_site_fract_y
_atom_site_fract_z
_atom_site_charge
C1       C      0.331330000000     0.420060000000     0.018410000000     0.405766   
C2       C      0.297930000000     0.296470000000     0.456030000000     0.409041   
C3       C      0.421520000000     0.329920000000     0.517710000000     0.409284   
C4       C      0.297830000000     0.296380000000     0.079810000000     0.408983   
C5       C      0.331270000000     0.592920000000     0.519080000000     0.409358   
C6       C      0.297850000000     0.716460000000     0.080660000000     0.408974   
C7       C      0.421420000000     0.683110000000     0.019290000000     0.405808   
C8       C      0.297700000000     0.716650000000     0.456870000000     0.408543   
C9       C      0.594380000000     0.329980000000     0.017440000000     0.405708   
C10      C      0.717950000000     0.296620000000     0.456070000000     0.409134   
C11      C      0.684520000000     0.420170000000     0.517650000000     0.409037   
C12      C      0.718100000000     0.296440000000     0.079860000000     0.408497   
C13      C      0.684470000000     0.593030000000     0.018330000000     0.40582    
C14      C      0.717970000000     0.716710000000     0.456920000000     0.409135   
C15      C      0.594280000000     0.683170000000     0.519020000000     0.409292   
C16      C      0.717870000000     0.716620000000     0.080710000000     0.408976   
C17      C      0.831340000000     0.093020000000     0.269710000000     0.409223   
C18      C      0.798050000000     0.216520000000     0.331270000000     0.409395   
C19      C      0.921530000000     0.183170000000     0.269490000000     0.409058   
C20      C      0.797740000000     0.216800000000     0.207470000000     0.408613   
C21      C      0.921420000000     0.829980000000     0.268180000000     0.409192   
C22      C      0.797830000000     0.796570000000     0.330710000000     0.408989   
C23      C      0.831280000000     0.920160000000     0.269170000000     0.409224   
C24      C      0.797730000000     0.796490000000     0.206920000000     0.408897   
C25      C      0.094270000000     0.829920000000     0.267240000000     0.409124   
C26      C      0.217750000000     0.796560000000     0.205460000000     0.409272   
C27      C      0.184460000000     0.920070000000     0.267020000000     0.409211   
C28      C      0.218060000000     0.796290000000     0.329260000000     0.408747   
C29      C      0.094380000000     0.183110000000     0.268550000000     0.4092     
C30      C      0.218070000000     0.216600000000     0.329810000000     0.408986   
C31      C      0.184520000000     0.092930000000     0.267560000000     0.409114   
C32      C      0.217960000000     0.216520000000     0.206030000000     0.408968   
C33      C      0.187310000000     0.984220000000     0.302810000000     0.0328205  
C34      C      0.185520000000     0.985020000000     0.231520000000     0.0326901  
C35      C      0.185530000000     0.028780000000     0.231660000000     0.0326926  
C36      C      0.187330000000     0.027970000000     0.302950000000     0.0327877  
C37      C      0.030200000000     0.827310000000     0.303190000000     0.0328017  
C38      C      0.029230000000     0.828710000000     0.231900000000     0.0327264  
C39      C      0.985470000000     0.828730000000     0.232140000000     0.0327506  
C40      C      0.986450000000     0.827310000000     0.303440000000     0.0327228  
C41      C      0.828510000000     0.028870000000     0.233910000000     0.0327408  
C42      C      0.830260000000     0.028070000000     0.305210000000     0.0326846  
C43      C      0.830250000000     0.984310000000     0.305060000000     0.0328166  
C44      C      0.828480000000     0.985120000000     0.233770000000     0.0327114  
C45      C      0.986570000000     0.184370000000     0.304830000000     0.0327591  
C46      C      0.985590000000     0.185800000000     0.233540000000     0.03276    
C47      C      0.029340000000     0.185790000000     0.233300000000     0.0327177  
C48      C      0.030320000000     0.184340000000     0.304590000000     0.0327699  
C49      C      0.774330000000     0.720780000000     0.410620000000     0.0329682  
C50      C      0.721290000000     0.772330000000     0.408980000000     0.0330108  
C51      C      0.741500000000     0.792540000000     0.377050000000     0.0329488  
C52      C      0.794540000000     0.740990000000     0.378690000000     0.0329904  
C53      C      0.773450000000     0.719910000000     0.128690000000     0.0327815  
C54      C      0.721900000000     0.772950000000     0.127050000000     0.0329045  
C55      C      0.742110000000     0.793170000000     0.158980000000     0.0328323  
C56      C      0.793660000000     0.740130000000     0.160620000000     0.0329581  
C57      C      0.774010000000     0.292860000000     0.409460000000     0.0329542  
C58      C      0.721710000000     0.240560000000     0.409450000000     0.0328811  
C59      C      0.742000000000     0.220270000000     0.377900000000     0.032909   
C60      C      0.794310000000     0.272560000000     0.377910000000     0.0329664  
C61      C      0.773990000000     0.292860000000     0.127530000000     0.0328388  
C62      C      0.721690000000     0.240550000000     0.127520000000     0.032884   
C63      C      0.741830000000     0.220410000000     0.159830000000     0.0329647  
C64      C      0.794120000000     0.272720000000     0.159840000000     0.0329856  
C65      C      0.685850000000     0.485150000000     0.482220000000     0.0327369  
C66      C      0.687020000000     0.484300000000     0.053520000000     0.03235    
C67      C      0.687010000000     0.528050000000     0.053690000000     0.032355   
C68      C      0.685830000000     0.528910000000     0.482390000000     0.0328131  
C69      C      0.273980000000     0.792670000000     0.376890000000     0.0330135  
C70      C      0.221670000000     0.740370000000     0.376900000000     0.0330268  
C71      C      0.241800000000     0.720240000000     0.409210000000     0.0330395  
C72      C      0.294110000000     0.772540000000     0.409210000000     0.0330039  
C73      C      0.294080000000     0.772530000000     0.127270000000     0.0327824  
C74      C      0.241790000000     0.720220000000     0.127280000000     0.0327633  
C75      C      0.221490000000     0.740520000000     0.158830000000     0.0328501  
C76      C      0.273790000000     0.792820000000     0.158820000000     0.0328294  
C77      C      0.485630000000     0.685820000000     0.483590000000     0.0328012  
C78      C      0.486310000000     0.684310000000     0.054880000000     0.0323969  
C79      C      0.530070000000     0.684320000000     0.054810000000     0.0323279  
C80      C      0.529390000000     0.685850000000     0.483520000000     0.032775   
C81      C      0.222130000000     0.272960000000     0.376120000000     0.0329278  
C82      C      0.273700000000     0.219920000000     0.377750000000     0.0329255  
C83      C      0.293910000000     0.240140000000     0.409680000000     0.0330067  
C84      C      0.242340000000     0.293170000000     0.408050000000     0.0329681  
C85      C      0.294500000000     0.240750000000     0.127750000000     0.0328556  
C86      C      0.241470000000     0.292320000000     0.126120000000     0.0327758  
C87      C      0.221260000000     0.272110000000     0.158050000000     0.0329107  
C88      C      0.274290000000     0.220540000000     0.159680000000     0.0328483  
C89      C      0.530160000000     0.327250000000     0.053140000000     0.0323337  
C90      C      0.529490000000     0.328800000000     0.481840000000     0.0327546  
C91      C      0.485730000000     0.328790000000     0.481920000000     0.032817   
C92      C      0.486410000000     0.327230000000     0.053210000000     0.0323419  
C93      C      0.328770000000     0.485040000000     0.483050000000     0.0328392  
C94      C      0.329980000000     0.484180000000     0.054340000000     0.032364   
C95      C      0.329960000000     0.527940000000     0.054520000000     0.0323093  
C96      C      0.328760000000     0.528790000000     0.483220000000     0.0327895  
C97      C      0.331330000000     0.420060000000     0.518410000000     0.409311   
C98      C      0.297930000000     0.296470000000     0.956030000000     0.408712   
C99      C      0.421520000000     0.329920000000     0.017710000000     0.405722   
C100     C      0.297830000000     0.296380000000     0.579810000000     0.409133   
C101     C      0.331270000000     0.592920000000     0.019080000000     0.405739   
C102     C      0.297850000000     0.716470000000     0.580660000000     0.409182   
C103     C      0.421420000000     0.683110000000     0.519290000000     0.409214   
C104     C      0.297700000000     0.716650000000     0.956870000000     0.408233   
C105     C      0.594380000000     0.329980000000     0.517440000000     0.409266   
C106     C      0.717950000000     0.296620000000     0.956070000000     0.409031   
C107     C      0.684520000000     0.420170000000     0.017660000000     0.405748   
C108     C      0.718100000000     0.296440000000     0.579860000000     0.408718   
C109     C      0.684470000000     0.593030000000     0.518330000000     0.409327   
C110     C      0.717970000000     0.716710000000     0.956920000000     0.40886    
C111     C      0.594280000000     0.683170000000     0.019020000000     0.405732   
C112     C      0.717870000000     0.716620000000     0.580710000000     0.409203   
C113     C      0.831340000000     0.093020000000     0.769710000000     0.409238   
C114     C      0.798050000000     0.216520000000     0.831270000000     0.409454   
C115     C      0.921530000000     0.183170000000     0.769500000000     0.409076   
C116     C      0.797740000000     0.216800000000     0.707470000000     0.40866    
C117     C      0.921420000000     0.829970000000     0.768180000000     0.409212   
C118     C      0.797830000000     0.796570000000     0.830710000000     0.409048   
C119     C      0.831280000000     0.920160000000     0.769170000000     0.409243   
C120     C      0.797730000000     0.796490000000     0.706920000000     0.408985   
C121     C      0.094270000000     0.829920000000     0.767240000000     0.409141   
C122     C      0.217750000000     0.796560000000     0.705460000000     0.409319   
C123     C      0.184460000000     0.920070000000     0.767020000000     0.409234   
C124     C      0.218060000000     0.796290000000     0.829260000000     0.408804   
C125     C      0.094380000000     0.183110000000     0.768550000000     0.409218   
C126     C      0.218070000000     0.216600000000     0.829810000000     0.409047   
C127     C      0.184520000000     0.092930000000     0.767560000000     0.409127   
C128     C      0.217960000000     0.216520000000     0.706020000000     0.408988   
C129     C      0.187310000000     0.984220000000     0.802810000000     0.0329559  
C130     C      0.185520000000     0.985020000000     0.731530000000     0.0328613  
C131     C      0.185530000000     0.028780000000     0.731660000000     0.0327199  
C132     C      0.187330000000     0.027970000000     0.802960000000     0.0327788  
C133     C      0.030200000000     0.827300000000     0.803190000000     0.0328611  
C134     C      0.029230000000     0.828710000000     0.731900000000     0.0328288  
C135     C      0.985470000000     0.828730000000     0.732140000000     0.0327708  
C136     C      0.986450000000     0.827310000000     0.803440000000     0.0328678  
C137     C      0.828510000000     0.028870000000     0.733910000000     0.0327727  
C138     C      0.830260000000     0.028070000000     0.805210000000     0.0327617  
C139     C      0.830250000000     0.984310000000     0.805060000000     0.0329066  
C140     C      0.828480000000     0.985120000000     0.733780000000     0.0328757  
C141     C      0.986570000000     0.184370000000     0.804830000000     0.0328328  
C142     C      0.985590000000     0.185800000000     0.733540000000     0.0328487  
C143     C      0.029340000000     0.185790000000     0.733300000000     0.0327916  
C144     C      0.030320000000     0.184340000000     0.804590000000     0.0328589  
C145     C      0.774330000000     0.720780000000     0.910620000000     0.0331493  
C146     C      0.721290000000     0.772330000000     0.908980000000     0.0331247  
C147     C      0.741500000000     0.792540000000     0.877050000000     0.0331017  
C148     C      0.794540000000     0.740990000000     0.878690000000     0.0331203  
C149     C      0.773450000000     0.719910000000     0.628690000000     0.0329369  
C150     C      0.721900000000     0.772950000000     0.627050000000     0.0330599  
C151     C      0.742110000000     0.793170000000     0.658980000000     0.0329356  
C152     C      0.793660000000     0.740130000000     0.660620000000     0.0330554  
C153     C      0.774010000000     0.292860000000     0.909460000000     0.0331056  
C154     C      0.721710000000     0.240560000000     0.909450000000     0.0330449  
C155     C      0.742000000000     0.220270000000     0.877900000000     0.033034   
C156     C      0.794310000000     0.272560000000     0.877910000000     0.0331092  
C157     C      0.773990000000     0.292860000000     0.627530000000     0.0329933  
C158     C      0.721690000000     0.240550000000     0.627520000000     0.0330383  
C159     C      0.741830000000     0.220410000000     0.659830000000     0.0330618  
C160     C      0.794120000000     0.272720000000     0.659840000000     0.0330826  
C161     C      0.685850000000     0.485150000000     0.982220000000     0.0346846  
C162     C      0.687020000000     0.484300000000     0.553520000000     0.0327939  
C163     C      0.687010000000     0.528050000000     0.553690000000     0.0327985  
C164     C      0.685830000000     0.528910000000     0.982390000000     0.0347281  
C165     C      0.273980000000     0.792670000000     0.876890000000     0.0331241  
C166     C      0.221670000000     0.740370000000     0.876900000000     0.0331657  
C167     C      0.241800000000     0.720240000000     0.909210000000     0.0331841  
C168     C      0.294110000000     0.772530000000     0.909210000000     0.0332149  
C169     C      0.294080000000     0.772530000000     0.627270000000     0.0329367  
C170     C      0.241790000000     0.720220000000     0.627280000000     0.0329322  
C171     C      0.221490000000     0.740520000000     0.658830000000     0.0329442  
C172     C      0.273790000000     0.792820000000     0.658820000000     0.0329293  
C173     C      0.485630000000     0.685820000000     0.983590000000     0.0347056  
C174     C      0.486310000000     0.684300000000     0.554880000000     0.0328191  
C175     C      0.530070000000     0.684320000000     0.554810000000     0.0328349  
C176     C      0.529390000000     0.685840000000     0.983520000000     0.0347618  
C177     C      0.222130000000     0.272960000000     0.876120000000     0.0330741  
C178     C      0.273700000000     0.219920000000     0.877750000000     0.0330756  
C179     C      0.293910000000     0.240140000000     0.909680000000     0.0331448  
C180     C      0.242340000000     0.293170000000     0.908050000000     0.033107   
C181     C      0.294500000000     0.240750000000     0.627750000000     0.0330118  
C182     C      0.241470000000     0.292320000000     0.626120000000     0.0329297  
C183     C      0.221260000000     0.272110000000     0.658050000000     0.0330201  
C184     C      0.274290000000     0.220540000000     0.659680000000     0.0329543  
C185     C      0.530160000000     0.327250000000     0.553140000000     0.0327567  
C186     C      0.529490000000     0.328800000000     0.981840000000     0.034654   
C187     C      0.485730000000     0.328780000000     0.981920000000     0.0348019  
C188     C      0.486410000000     0.327230000000     0.553210000000     0.0328483  
C189     C      0.328770000000     0.485040000000     0.983050000000     0.0347675  
C190     C      0.329980000000     0.484180000000     0.554340000000     0.032805   
C191     C      0.329960000000     0.527940000000     0.554520000000     0.0327635  
C192     C      0.328760000000     0.528790000000     0.983220000000     0.0347136  
H1       H      0.187930000000     0.967860000000     0.331640000000     0.045041   
H2       H      0.184690000000     0.969290000000     0.202610000000     0.0447135  
H3       H      0.184720000000     0.045150000000     0.202850000000     0.0447173  
H4       H      0.187970000000     0.043690000000     0.331880000000     0.045041   
H5       H      0.046640000000     0.826820000000     0.331980000000     0.045046   
H6       H      0.044880000000     0.829370000000     0.202940000000     0.044706   
H7       H      0.969030000000     0.829400000000     0.203360000000     0.0447081  
H8       H      0.970810000000     0.826840000000     0.332400000000     0.045042   
H9       H      0.827890000000     0.045230000000     0.205090000000     0.044896   
H10      H      0.831080000000     0.043800000000     0.334120000000     0.0448887  
H11      H      0.831050000000     0.967940000000     0.333880000000     0.0448572  
H12      H      0.827860000000     0.969400000000     0.204850000000     0.0448948  
H13      H      0.970910000000     0.183690000000     0.333790000000     0.0448719  
H14      H      0.969160000000     0.186290000000     0.204750000000     0.0448829  
H15      H      0.044990000000     0.186280000000     0.204340000000     0.0448846  
H16      H      0.046770000000     0.183660000000     0.333370000000     0.0448852  
H17      H      0.788400000000     0.692490000000     0.422990000000     0.0451335  
H18      H      0.692390000000     0.785790000000     0.420020000000     0.0452386  
H19      H      0.727430000000     0.820820000000     0.364670000000     0.0451234  
H20      H      0.823430000000     0.727520000000     0.367640000000     0.0452384  
H21      H      0.786920000000     0.691020000000     0.117640000000     0.0450426  
H22      H      0.693610000000     0.787030000000     0.114670000000     0.0448823  
H23      H      0.728640000000     0.822060000000     0.170020000000     0.0451418  
H24      H      0.821950000000     0.726050000000     0.172990000000     0.0449985  
H25      H      0.787760000000     0.321480000000     0.421030000000     0.0450924  
H26      H      0.693090000000     0.226820000000     0.421020000000     0.0451174  
H27      H      0.728250000000     0.191660000000     0.366330000000     0.0450921  
H28      H      0.822930000000     0.286310000000     0.366340000000     0.0450776  
H29      H      0.787780000000     0.321430000000     0.115680000000     0.0450664  
H30      H      0.693130000000     0.226750000000     0.115670000000     0.0450582  
H31      H      0.728030000000     0.191840000000     0.171680000000     0.0451579  
H32      H      0.822690000000     0.286520000000     0.171690000000     0.0451441  
H33      H      0.685290000000     0.469450000000     0.453290000000     0.0448826  
H34      H      0.687410000000     0.467910000000     0.082330000000     0.0450307  
H35      H      0.687390000000     0.543740000000     0.082630000000     0.0450186  
H36      H      0.685260000000     0.545300000000     0.453580000000     0.0448771  
H37      H      0.287770000000     0.821240000000     0.365040000000     0.0452818  
H38      H      0.193100000000     0.726580000000     0.365060000000     0.0452657  
H39      H      0.228000000000     0.691670000000     0.421060000000     0.0452648  
H40      H      0.322680000000     0.786330000000     0.421050000000     0.0452825  
H41      H      0.322700000000     0.786280000000     0.115700000000     0.0448902  
H42      H      0.228050000000     0.691600000000     0.115710000000     0.0448952  
H43      H      0.192880000000     0.726770000000     0.170400000000     0.0449701  
H44      H      0.287530000000     0.821440000000     0.170390000000     0.0449807  
H45      H      0.469320000000     0.686340000000     0.454740000000     0.0450427  
H46      H      0.470540000000     0.683590000000     0.083780000000     0.0448413  
H47      H      0.546390000000     0.683610000000     0.083660000000     0.0448655  
H48      H      0.545150000000     0.686370000000     0.454620000000     0.0450382  
H49      H      0.193840000000     0.287020000000     0.363750000000     0.0451443  
H50      H      0.287170000000     0.191040000000     0.366700000000     0.0452581  
H51      H      0.322200000000     0.226070000000     0.422050000000     0.0451206  
H52      H      0.228870000000     0.322060000000     0.419100000000     0.0452486  
H53      H      0.323390000000     0.227280000000     0.116700000000     0.0450336  
H54      H      0.227410000000     0.320610000000     0.113750000000     0.0449343  
H55      H      0.192370000000     0.285580000000     0.169100000000     0.0451232  
H56      H      0.288360000000     0.192250000000     0.172050000000     0.045021   
H57      H      0.546480000000     0.326720000000     0.081990000000     0.0450455  
H58      H      0.545260000000     0.329530000000     0.452950000000     0.0448729  
H59      H      0.469400000000     0.329500000000     0.453070000000     0.0448728  
H60      H      0.470650000000     0.326690000000     0.082110000000     0.0450225  
H61      H      0.328380000000     0.469350000000     0.454110000000     0.0450146  
H62      H      0.330570000000     0.467790000000     0.083150000000     0.0448636  
H63      H      0.330540000000     0.543640000000     0.083450000000     0.0448646  
H64      H      0.328360000000     0.545180000000     0.454400000000     0.0450432  
H65      H      0.187930000000     0.967860000000     0.831640000000     0.0452204  
H66      H      0.184690000000     0.969290000000     0.702610000000     0.0448586  
H67      H      0.184720000000     0.045150000000     0.702850000000     0.0448993  
H68      H      0.187970000000     0.043690000000     0.831880000000     0.0452594  
H69      H      0.046640000000     0.826820000000     0.831980000000     0.045244   
H70      H      0.044880000000     0.829370000000     0.702940000000     0.0448708  
H71      H      0.969030000000     0.829400000000     0.703360000000     0.0448922  
H72      H      0.970810000000     0.826840000000     0.832400000000     0.0452198  
H73      H      0.827890000000     0.045230000000     0.705090000000     0.0450749  
H74      H      0.831070000000     0.043800000000     0.834120000000     0.0450864  
H75      H      0.831050000000     0.967940000000     0.833880000000     0.045051   
H76      H      0.827860000000     0.969400000000     0.704850000000     0.0450398  
H77      H      0.970910000000     0.183690000000     0.833790000000     0.0450686  
H78      H      0.969160000000     0.186290000000     0.704750000000     0.0450495  
H79      H      0.044990000000     0.186280000000     0.704340000000     0.0450533  
H80      H      0.046770000000     0.183660000000     0.833370000000     0.0450787  
H81      H      0.788400000000     0.692490000000     0.922990000000     0.0454261  
H82      H      0.692390000000     0.785800000000     0.920020000000     0.0455289  
H83      H      0.727430000000     0.820820000000     0.864670000000     0.0452767  
H84      H      0.823430000000     0.727520000000     0.867640000000     0.0454053  
H85      H      0.786920000000     0.691020000000     0.617640000000     0.0452691  
H86      H      0.693610000000     0.787030000000     0.614670000000     0.0451185  
H87      H      0.728640000000     0.822060000000     0.670020000000     0.0452873  
H88      H      0.821950000000     0.726050000000     0.672990000000     0.045136   
H89      H      0.787760000000     0.321480000000     0.921030000000     0.0453826  
H90      H      0.693090000000     0.226820000000     0.921020000000     0.0454075  
H91      H      0.728260000000     0.191660000000     0.866330000000     0.0452638  
H92      H      0.822930000000     0.286310000000     0.866340000000     0.0452403  
H93      H      0.787780000000     0.321430000000     0.615680000000     0.0452971  
H94      H      0.693130000000     0.226750000000     0.615670000000     0.0452887  
H95      H      0.728030000000     0.191840000000     0.671680000000     0.0452979  
H96      H      0.822690000000     0.286520000000     0.671690000000     0.0452842  
H97      H      0.685290000000     0.469450000000     0.953290000000     0.0448098  
H98      H      0.687410000000     0.467910000000     0.582330000000     0.0450704  
H99      H      0.687390000000     0.543740000000     0.582630000000     0.0450499  
H100     H      0.685260000000     0.545300000000     0.953580000000     0.0448133  
H101     H      0.287770000000     0.821240000000     0.865040000000     0.0454488  
H102     H      0.193100000000     0.726580000000     0.865060000000     0.0454256  
H103     H      0.228000000000     0.691670000000     0.921060000000     0.0455569  
H104     H      0.322680000000     0.786330000000     0.921050000000     0.0455529  
H105     H      0.322700000000     0.786280000000     0.615700000000     0.0451178  
H106     H      0.228050000000     0.691600000000     0.615710000000     0.0451219  
H107     H      0.192880000000     0.726770000000     0.670400000000     0.0451134  
H108     H      0.287530000000     0.821440000000     0.670390000000     0.0451224  
H109     H      0.469320000000     0.686340000000     0.954740000000     0.0449901  
H110     H      0.470540000000     0.683590000000     0.583780000000     0.0448766  
H111     H      0.546390000000     0.683610000000     0.583660000000     0.0448828  
H112     H      0.545150000000     0.686370000000     0.954620000000     0.0449597  
H113     H      0.193840000000     0.287020000000     0.863750000000     0.045301   
H114     H      0.287170000000     0.191040000000     0.866700000000     0.0454215  
H115     H      0.322200000000     0.226070000000     0.922050000000     0.0454198  
H116     H      0.228870000000     0.322060000000     0.919100000000     0.0455342  
H117     H      0.323390000000     0.227280000000     0.616700000000     0.0452565  
H118     H      0.227410000000     0.320610000000     0.613750000000     0.0451675  
H119     H      0.192370000000     0.285580000000     0.669100000000     0.0452617  
H120     H      0.288360000000     0.192250000000     0.672050000000     0.0451546  
H121     H      0.546480000000     0.326720000000     0.581990000000     0.0450857  
H122     H      0.545260000000     0.329530000000     0.952950000000     0.0448126  
H123     H      0.469400000000     0.329500000000     0.953070000000     0.0447916  
H124     H      0.470650000000     0.326690000000     0.582110000000     0.0450428  
H125     H      0.328380000000     0.469350000000     0.954110000000     0.0449513  
H126     H      0.330570000000     0.467780000000     0.583150000000     0.0449019  
H127     H      0.330540000000     0.543640000000     0.583450000000     0.0449004  
H128     H      0.328360000000     0.545180000000     0.954400000000     0.0449786  
In1      In     0.336960000000     0.335500000000     0.517970000000     2.4181     
In2      In     0.336860000000     0.677480000000     0.519200000000     2.41799    
In3      In     0.678940000000     0.335610000000     0.517530000000     2.41801    
In4      In     0.678840000000     0.677580000000     0.518760000000     2.41827    
In5      In     0.836970000000     0.177580000000     0.269730000000     2.41792    
In6      In     0.836860000000     0.835600000000     0.268760000000     2.41776    
In7      In     0.178830000000     0.835510000000     0.267000000000     2.41779    
In8      In     0.178930000000     0.177490000000     0.267980000000     2.41788    
In9      In     0.336960000000     0.335510000000     0.017980000000     2.40969    
In10     In     0.336860000000     0.677480000000     0.019200000000     2.40958    
In11     In     0.678940000000     0.335610000000     0.017530000000     2.40972    
In12     In     0.678840000000     0.677580000000     0.018760000000     2.40973    
In13     In     0.836970000000     0.177580000000     0.769730000000     2.41803    
In14     In     0.836860000000     0.835600000000     0.768760000000     2.41777    
In15     In     0.178830000000     0.835510000000     0.767000000000     2.4179     
In16     In     0.178930000000     0.177490000000     0.767980000000     2.418      
N1       N      0.185990000000     0.962900000000     0.267110000000    -0.176208   
N2       N      0.186020000000     0.050090000000     0.267390000000    -0.176141   
N3       N      0.051440000000     0.828420000000     0.267430000000    -0.176188   
N4       N      0.964250000000     0.828440000000     0.267910000000    -0.176193   
N5       N      0.829810000000     0.050190000000     0.269620000000    -0.176185   
N6       N      0.829780000000     0.962990000000     0.269340000000    -0.176205   
N7       N      0.964360000000     0.184670000000     0.269300000000    -0.176185   
N8       N      0.051550000000     0.184640000000     0.268820000000    -0.176194   
N9       N      0.737770000000     0.736520000000     0.425650000000    -0.176066   
N10      N      0.778050000000     0.776790000000     0.362010000000    -0.176036   
N11      N      0.737640000000     0.736400000000     0.112010000000    -0.17615    
N12      N      0.777920000000     0.776680000000     0.175650000000    -0.176034   
N13      N      0.737790000000     0.276790000000     0.425120000000    -0.176125   
N14      N      0.778230000000     0.236350000000     0.362240000000    -0.17615    
N15      N      0.737850000000     0.276690000000     0.111480000000    -0.175976   
N16      N      0.777970000000     0.236570000000     0.175870000000    -0.175958   
N17      N      0.686030000000     0.463010000000     0.517790000000    -0.1761     
N18      N      0.686000000000     0.550200000000     0.018130000000    -0.177035   
N19      N      0.237820000000     0.776520000000     0.360860000000    -0.175936   
N20      N      0.277950000000     0.736390000000     0.425250000000    -0.175919   
N21      N      0.278010000000     0.736300000000     0.111610000000    -0.176152   
N22      N      0.237570000000     0.776740000000     0.174490000000    -0.176196   
N23      N      0.464250000000     0.684640000000     0.019270000000    -0.177052   
N24      N      0.551450000000     0.684670000000     0.519130000000    -0.176215   
N25      N      0.237880000000     0.236400000000     0.361080000000    -0.175995   
N26      N      0.278160000000     0.276690000000     0.424720000000    -0.176017   
N27      N      0.278030000000     0.276570000000     0.111080000000    -0.176096   
N28      N      0.237740000000     0.236300000000     0.174720000000    -0.176018   
N29      N      0.551540000000     0.328450000000     0.017460000000    -0.176965   
N30      N      0.464350000000     0.328420000000     0.517610000000    -0.176222   
N31      N      0.329800000000     0.462890000000     0.018600000000    -0.177048   
N32      N      0.329770000000     0.550080000000     0.518950000000    -0.176162   
N33      N      0.185990000000     0.962900000000     0.767110000000    -0.176207   
N34      N      0.186020000000     0.050090000000     0.767390000000    -0.176072   
N35      N      0.051440000000     0.828420000000     0.767430000000    -0.176153   
N36      N      0.964250000000     0.828450000000     0.767920000000    -0.176164   
N37      N      0.829810000000     0.050190000000     0.769620000000    -0.176142   
N38      N      0.829780000000     0.962990000000     0.769340000000    -0.176196   
N39      N      0.964360000000     0.184670000000     0.769300000000    -0.17615    
N40      N      0.051550000000     0.184640000000     0.768820000000    -0.17616    
N41      N      0.737770000000     0.736510000000     0.925650000000    -0.175908   
N42      N      0.778050000000     0.776790000000     0.862010000000    -0.176004   
N43      N      0.737640000000     0.736400000000     0.612010000000    -0.176101   
N44      N      0.777920000000     0.776680000000     0.675650000000    -0.176005   
N45      N      0.737790000000     0.276790000000     0.925120000000    -0.175983   
N46      N      0.778230000000     0.236350000000     0.862240000000    -0.176114   
N47      N      0.737850000000     0.276690000000     0.611480000000    -0.175926   
N48      N      0.777970000000     0.236570000000     0.675870000000    -0.175924   
N49      N      0.686020000000     0.463010000000     0.017790000000    -0.176989   
N50      N      0.686000000000     0.550200000000     0.518130000000    -0.1762     
N51      N      0.237820000000     0.776520000000     0.860860000000    -0.175899   
N52      N      0.277950000000     0.736390000000     0.925250000000    -0.175759   
N53      N      0.278010000000     0.736300000000     0.611610000000    -0.176131   
N54      N      0.237570000000     0.776740000000     0.674490000000    -0.176161   
N55      N      0.464260000000     0.684640000000     0.519270000000    -0.176162   
N56      N      0.551450000000     0.684670000000     0.019120000000    -0.177046   
N57      N      0.237880000000     0.236400000000     0.861080000000    -0.175963   
N58      N      0.278160000000     0.276690000000     0.924720000000    -0.175834   
N59      N      0.278030000000     0.276570000000     0.611090000000    -0.176004   
N60      N      0.237740000000     0.236300000000     0.674720000000    -0.17603    
N61      N      0.551540000000     0.328450000000     0.517460000000    -0.176133   
N62      N      0.464350000000     0.328420000000     0.017600000000    -0.177053   
N63      N      0.329800000000     0.462890000000     0.518600000000    -0.17622    
N64      N      0.329770000000     0.550080000000     0.018950000000    -0.176985   
O1       O      0.283860000000     0.329480000000     0.063480000000    -0.497151   
O2       O      0.331590000000     0.283060000000     0.064930000000    -0.496092   
O3       O      0.284590000000     0.330200000000     0.470930000000    -0.496521   
O4       O      0.333100000000     0.398290000000     0.550380000000    -0.496979   
O5       O      0.400470000000     0.330390000000     0.049850000000    -0.495052   
O6       O      0.331950000000     0.399090000000     0.986220000000    -0.492562   
O7       O      0.331020000000     0.282470000000     0.472390000000    -0.497414   
O8       O      0.399830000000     0.331810000000     0.485690000000    -0.497047   
O9       O      0.331140000000     0.730300000000     0.472620000000    -0.496163   
O10      O      0.284030000000     0.683220000000     0.472640000000    -0.496245   
O11      O      0.284210000000     0.683030000000     0.065190000000    -0.497073   
O12      O      0.332940000000     0.613950000000     0.051210000000    -0.495369   
O13      O      0.399780000000     0.682560000000     0.487210000000    -0.496612   
O14      O      0.331980000000     0.614630000000     0.487050000000    -0.496712   
O15      O      0.331270000000     0.730130000000     0.065180000000    -0.497123   
O16      O      0.400320000000     0.681270000000     0.051370000000    -0.495346   
O17      O      0.684670000000     0.282780000000     0.064100000000    -0.495944   
O18      O      0.731760000000     0.329870000000     0.064100000000    -0.496099   
O19      O      0.684520000000     0.282960000000     0.471550000000    -0.49734    
O20      O      0.615480000000     0.331840000000     0.485360000000    -0.496618   
O21      O      0.683800000000     0.398460000000     0.049680000000    -0.495507   
O22      O      0.616010000000     0.330520000000     0.049520000000    -0.495295   
O23      O      0.731590000000     0.330050000000     0.471550000000    -0.497374   
O24      O      0.682870000000     0.399140000000     0.485520000000    -0.496592   
O25      O      0.731200000000     0.682880000000     0.065810000000    -0.496252   
O26      O      0.684790000000     0.730620000000     0.064340000000    -0.497135   
O27      O      0.731940000000     0.683610000000     0.473260000000    -0.497378   
O28      O      0.682710000000     0.614800000000     0.486350000000    -0.49701    
O29      O      0.615970000000     0.681290000000     0.051040000000    -0.495756   
O30      O      0.683840000000     0.613990000000     0.050510000000    -0.495108   
O31      O      0.684200000000     0.730020000000     0.471790000000    -0.496299   
O32      O      0.615330000000     0.682680000000     0.486880000000    -0.4963     
O33      O      0.784100000000     0.183350000000     0.223210000000    -0.496194   
O34      O      0.831170000000     0.230460000000     0.223230000000    -0.496355   
O35      O      0.831460000000     0.230180000000     0.315780000000    -0.497464   
O36      O      0.833270000000     0.114070000000     0.301820000000    -0.496577   
O37      O      0.899770000000     0.182550000000     0.237490000000    -0.49666    
O38      O      0.831800000000     0.114710000000     0.237660000000    -0.4967     
O39      O      0.784370000000     0.183120000000     0.315770000000    -0.497533   
O40      O      0.900550000000     0.181410000000     0.301660000000    -0.496538   
O41      O      0.830820000000     0.782500000000     0.223270000000    -0.497461   
O42      O      0.784420000000     0.830260000000     0.221790000000    -0.496255   
O43      O      0.831580000000     0.783240000000     0.315820000000    -0.496306   
O44      O      0.899600000000     0.831860000000     0.236240000000    -0.497001   
O45      O      0.831640000000     0.899170000000     0.236990000000    -0.496207   
O46      O      0.900500000000     0.830480000000     0.300400000000    -0.496196   
O47      O      0.783820000000     0.829640000000     0.314330000000    -0.497436   
O48      O      0.833280000000     0.898420000000     0.301150000000    -0.497045   
O49      O      0.184620000000     0.782630000000     0.313510000000    -0.496189   
O50      O      0.231700000000     0.829730000000     0.313520000000    -0.49622    
O51      O      0.184340000000     0.782900000000     0.220960000000    -0.497451   
O52      O      0.115240000000     0.831660000000     0.235070000000    -0.496574   
O53      O      0.184010000000     0.898380000000     0.299070000000    -0.496578   
O54      O      0.116030000000     0.830550000000     0.299240000000    -0.496583   
O55      O      0.231420000000     0.829970000000     0.220960000000    -0.497627   
O56      O      0.182510000000     0.899020000000     0.234910000000    -0.496696   
O57      O      0.184220000000     0.229850000000     0.220920000000    -0.496448   
O58      O      0.231970000000     0.183440000000     0.222390000000    -0.49736    
O59      O      0.184970000000     0.230580000000     0.313470000000    -0.497508   
O60      O      0.116200000000     0.181220000000     0.300490000000    -0.497066   
O61      O      0.184170000000     0.113920000000     0.299740000000    -0.496123   
O62      O      0.115300000000     0.182620000000     0.236330000000    -0.496319   
O63      O      0.231380000000     0.182830000000     0.314940000000    -0.496207   
O64      O      0.182500000000     0.114670000000     0.235580000000    -0.497058   
O65      O      0.283860000000     0.329480000000     0.563480000000    -0.497315   
O66      O      0.331590000000     0.283060000000     0.564930000000    -0.496359   
O67      O      0.284590000000     0.330200000000     0.970930000000    -0.494508   
O68      O      0.333100000000     0.398290000000     0.050380000000    -0.495873   
O69      O      0.400470000000     0.330390000000     0.549850000000    -0.496263   
O70      O      0.331950000000     0.399090000000     0.486220000000    -0.496248   
O71      O      0.331020000000     0.282470000000     0.972390000000    -0.495281   
O72      O      0.399830000000     0.331810000000     0.985690000000    -0.493245   
O73      O      0.331140000000     0.730300000000     0.972620000000    -0.494243   
O74      O      0.284030000000     0.683220000000     0.972640000000    -0.49431    
O75      O      0.284210000000     0.683030000000     0.565190000000    -0.497282   
O76      O      0.332940000000     0.613940000000     0.551210000000    -0.496601   
O77      O      0.399790000000     0.682560000000     0.987210000000    -0.492868   
O78      O      0.331980000000     0.614630000000     0.987050000000    -0.492959   
O79      O      0.331270000000     0.730130000000     0.565180000000    -0.497427   
O80      O      0.400320000000     0.681260000000     0.551370000000    -0.496579   
O81      O      0.684670000000     0.282780000000     0.564100000000    -0.496201   
O82      O      0.731760000000     0.329870000000     0.564100000000    -0.496362   
O83      O      0.684530000000     0.282960000000     0.971550000000    -0.49553    
O84      O      0.615480000000     0.331840000000     0.985360000000    -0.492909   
O85      O      0.683800000000     0.398460000000     0.549690000000    -0.4965     
O86      O      0.616010000000     0.330520000000     0.549520000000    -0.49656    
O87      O      0.731590000000     0.330050000000     0.971550000000    -0.495499   
O88      O      0.682870000000     0.399140000000     0.985520000000    -0.492861   
O89      O      0.731200000000     0.682880000000     0.565810000000    -0.496526   
O90      O      0.684790000000     0.730620000000     0.564340000000    -0.497404   
O91      O      0.731940000000     0.683610000000     0.973260000000    -0.495422   
O92      O      0.682710000000     0.614800000000     0.986350000000    -0.493297   
O93      O      0.615970000000     0.681290000000     0.551040000000    -0.497035   
O94      O      0.683840000000     0.614000000000     0.550510000000    -0.496428   
O95      O      0.684200000000     0.730020000000     0.971790000000    -0.494374   
O96      O      0.615330000000     0.682680000000     0.986880000000    -0.492551   
O97      O      0.784100000000     0.183350000000     0.723210000000    -0.496116   
O98      O      0.831170000000     0.230460000000     0.723230000000    -0.496278   
O99      O      0.831460000000     0.230180000000     0.815780000000    -0.497369   
O100     O      0.833270000000     0.114070000000     0.801820000000    -0.496442   
O101     O      0.899770000000     0.182550000000     0.737490000000    -0.496474   
O102     O      0.831800000000     0.114710000000     0.737660000000    -0.496588   
O103     O      0.784370000000     0.183120000000     0.815770000000    -0.497441   
O104     O      0.900550000000     0.181410000000     0.801660000000    -0.496478   
O105     O      0.830820000000     0.782500000000     0.723270000000    -0.497398   
O106     O      0.784420000000     0.830260000000     0.721780000000    -0.496131   
O107     O      0.831580000000     0.783240000000     0.815820000000    -0.496211   
O108     O      0.899600000000     0.831860000000     0.736240000000    -0.496876   
O109     O      0.831640000000     0.899170000000     0.736990000000    -0.496087   
O110     O      0.900500000000     0.830480000000     0.800400000000    -0.496052   
O111     O      0.783820000000     0.829640000000     0.814330000000    -0.497351   
O112     O      0.833280000000     0.898420000000     0.801150000000    -0.496903   
O113     O      0.184620000000     0.782630000000     0.813510000000    -0.4961     
O114     O      0.231700000000     0.829730000000     0.813520000000    -0.496131   
O115     O      0.184340000000     0.782900000000     0.720960000000    -0.497369   
O116     O      0.115240000000     0.831660000000     0.735070000000    -0.496458   
O117     O      0.184010000000     0.898380000000     0.799070000000    -0.496451   
O118     O      0.116030000000     0.830550000000     0.799240000000    -0.496454   
O119     O      0.231420000000     0.829970000000     0.720960000000    -0.497545   
O120     O      0.182510000000     0.899020000000     0.734910000000    -0.496583   
O121     O      0.184220000000     0.229850000000     0.720920000000    -0.496328   
O122     O      0.231970000000     0.183440000000     0.722390000000    -0.49724    
O123     O      0.184970000000     0.230580000000     0.813470000000    -0.497419   
O124     O      0.116200000000     0.181220000000     0.800490000000    -0.496936   
O125     O      0.184170000000     0.113920000000     0.799740000000    -0.495991   
O126     O      0.115300000000     0.182620000000     0.736330000000    -0.496209   
O127     O      0.231380000000     0.182830000000     0.814940000000    -0.496116   
O128     O      0.182500000000     0.114670000000     0.735580000000    -0.496946   


