data_structure

_audit_creation_method RASPA-1.0
_audit_creation_date 2023-5-23
_audit_author_name 'Poobodin Mano'

_cell_length_a    27.2802
_cell_length_b    27.2828
_cell_length_c    35.2023
_cell_angle_alpha 89.8764
_cell_angle_beta  90.3712
_cell_angle_gamma 90.1738
_cell_volume      26199.6

_symmetry_cell_setting          triclinic
_symmetry_space_group_name_Hall 'P 1'
_symmetry_space_group_name_H-M  'P 1'
_symmetry_Int_Tables_number     1

_symmetry_equiv_pos_as_xyz 'x,y,z'

loop_
_atom_site_label
_atom_site_type_symbol
_atom_site_fract_x
_atom_site_fract_y
_atom_site_fract_z
_atom_site_charge
C1       C      0.044410000000     0.205040000000     0.991990000000     0.409345   
C2       C      0.917800000000     0.325130000000     0.462730000000     0.409522   
C3       C      0.920210000000     0.231100000000     0.054800000000     0.408643   
C4       C      0.045280000000     0.352880000000     0.024020000000     0.409707   
C5       C      0.044810000000     0.199060000000     0.230280000000     0.409645   
C6       C      0.919590000000     0.320990000000     0.200050000000     0.409144   
C7       C      0.918820000000     0.226740000000     0.292040000000     0.409157   
C8       C      0.045250000000     0.346810000000     0.262450000000     0.409403   
C9       C      0.686310000000     0.563640000000     0.077320000000     0.40951    
C10      C      0.807130000000     0.437330000000     0.105940000000     0.409394   
C11      C      0.711180000000     0.437980000000     0.015140000000     0.409284   
C12      C      0.833060000000     0.563750000000     0.043740000000     0.409703   
C13      C      0.680970000000     0.560110000000     0.333910000000     0.409768   
C14      C      0.801900000000     0.435330000000     0.366610000000     0.408619   
C15      C      0.710260000000     0.433990000000     0.272250000000     0.409105   
C16      C      0.830010000000     0.559930000000     0.303440000000     0.40949    
C17      C      0.834800000000     0.988010000000     0.210210000000     0.409673   
C18      C      0.712910000000     0.113520000000     0.239440000000     0.408979   
C19      C      0.808700000000     0.114990000000     0.149120000000     0.409206   
C20      C      0.687760000000     0.988410000000     0.177130000000     0.40961    
C21      C      0.831410000000     0.991640000000     0.450190000000     0.409819   
C22      C      0.711660000000     0.117520000000     0.981750000000     0.408674   
C23      C      0.803610000000     0.116830000000     0.388170000000     0.408891   
C24      C      0.682340000000     0.991730000000     0.420100000000     0.409752   
C25      C      0.476120000000     0.350320000000     0.111330000000     0.40976    
C26      C      0.600930000000     0.229760000000     0.078770000000     0.408511   
C27      C      0.600960000000     0.320490000000     0.173720000000     0.408366   
C28      C      0.475400000000     0.200730000000     0.140570000000     0.409386   
C29      C      0.470760000000     0.348330000000     0.359480000000     0.409479   
C30      C      0.596520000000     0.226530000000     0.331620000000     0.409295   
C31      C      0.596530000000     0.322920000000     0.421660000000     0.408754   
C32      C      0.470100000000     0.201700000000     0.393260000000     0.409493   
C33      C      0.336360000000     0.491880000000     0.083950000000     0.409723   
C34      C      0.215260000000     0.616610000000     0.116550000000     0.40821    
C35      C      0.306930000000     0.618120000000     0.022740000000     0.408966   
C36      C      0.187140000000     0.492040000000     0.054060000000     0.409122   
C37      C      0.184030000000     0.488250000000     0.294440000000     0.409224   
C38      C      0.306000000000     0.614020000000     0.265730000000     0.408998   
C39      C      0.210150000000     0.614560000000     0.356070000000     0.408962   
C40      C      0.331060000000     0.488270000000     0.327520000000     0.409369   
C41      C      0.547310000000     0.849080000000     0.144060000000     0.409714   
C42      C      0.421360000000     0.727650000000     0.172460000000     0.40899    
C43      C      0.420400000000     0.824080000000     0.082260000000     0.409422   
C44      C      0.546650000000     0.702560000000     0.110090000000     0.409733   
C45      C      0.542080000000     0.850430000000     0.391540000000     0.409735   
C46      C      0.416950000000     0.730430000000     0.424560000000     0.408371   
C47      C      0.416130000000     0.821190000000     0.329470000000     0.408743   
C48      C      0.541360000000     0.700910000000     0.362100000000     0.409472   
C49      C      0.334720000000     0.060320000000     0.169520000000     0.409641   
C50      C      0.213470000000     0.935390000000     0.137610000000     0.409004   
C51      C      0.305420000000     0.934370000000     0.231690000000     0.409272   
C52      C      0.185850000000     0.060380000000     0.200180000000     0.40973    
C53      C      0.182290000000     0.063890000000     0.460290000000     0.40955    
C54      C      0.303990000000     0.938200000000     0.989460000000     0.408565   
C55      C      0.208110000000     0.937150000000     0.398600000000     0.409299   
C56      C      0.329070000000     0.063490000000     0.426700000000     0.40919    
C57      C      0.972590000000     0.852110000000     0.979410000000     0.409158   
C58      C      0.097550000000     0.729980000000     0.449320000000     0.409106   
C59      C      0.099020000000     0.824230000000     0.041070000000     0.409046   
C60      C      0.972250000000     0.704290000000     0.011380000000     0.409551   
C61      C      0.972960000000     0.846120000000     0.241040000000     0.409359   
C62      C      0.099260000000     0.725860000000     0.211810000000     0.409284   
C63      C      0.097520000000     0.819860000000     0.303810000000     0.408524   
C64      C      0.972260000000     0.698150000000     0.272890000000     0.409521   
C65      C      0.189360000000     0.907660000000     0.336830000000     0.032617   
C66      C      0.148920000000     0.874110000000     0.390030000000     0.0359295  
C67      C      0.121070000000     0.844240000000     0.366010000000     0.0304941  
C68      C      0.161390000000     0.877950000000     0.312820000000     0.0342023  
C69      C      0.155580000000     0.871530000000     0.127800000000     0.0340278  
C70      C      0.191420000000     0.911030000000     0.075050000000     0.0306875  
C71      C      0.162290000000     0.883010000000     0.050580000000     0.0357661  
C72      C      0.126690000000     0.843310000000     0.103340000000     0.032639   
C73      C      0.352930000000     0.879430000000     0.319080000000     0.0342244  
C74      C      0.390990000000     0.841770000000     0.266710000000     0.0316242  
C75      C      0.363120000000     0.870600000000     0.241930000000     0.0349884  
C76      C      0.324810000000     0.908000000000     0.294310000000     0.0322315  
C77      C      0.391500000000     0.845440000000     0.020720000000     0.0321876  
C78      C      0.357590000000     0.883370000000     0.074710000000     0.0357593  
C79      C      0.328010000000     0.912200000000     0.051220000000     0.0307384  
C80      C      0.362040000000     0.874380000000     0.997240000000     0.0345189  
C81      C      0.151510000000     0.677820000000     0.363870000000     0.0357392  
C82      C      0.189330000000     0.642260000000     0.417730000000     0.0322626  
C83      C      0.160790000000     0.671450000000     0.441340000000     0.0343509  
C84      C      0.123110000000     0.707160000000     0.387490000000     0.0305085  
C85      C      0.328220000000     0.640660000000     0.203970000000     0.0309744  
C86      C      0.365440000000     0.676800000000     0.257830000000     0.0352973  
C87      C      0.394650000000     0.705590000000     0.234210000000     0.0314955  
C88      C      0.357530000000     0.669340000000     0.180350000000     0.0356842  
C89      C      0.157840000000     0.680560000000     0.125870000000     0.033852   
C90      C      0.191590000000     0.639340000000     0.178900000000     0.0305386  
C91      C      0.162020000000     0.666850000000     0.203030000000     0.0357508  
C92      C      0.128500000000     0.708230000000     0.149990000000     0.0327491  
C93      C      0.393650000000     0.709450000000     0.987450000000     0.0309215  
C94      C      0.352790000000     0.673180000000     0.435250000000     0.0342488  
C95      C      0.324840000000     0.644870000000     0.460130000000     0.0324738  
C96      C      0.365910000000     0.680880000000     0.012330000000     0.0356599  
C97      C      0.415000000000     0.409060000000     0.380290000000     0.0330242  
C98      C      0.426470000000     0.396300000000     0.314630000000     0.032314   
C99      C      0.390780000000     0.431460000000     0.306610000000     0.0329649  
C100     C      0.379890000000     0.444780000000     0.372270000000     0.0323724  
C101     C      0.427200000000     0.153560000000     0.438490000000     0.0323585  
C102     C      0.411760000000     0.142470000000     0.372980000000     0.0330262  
C103     C      0.376270000000     0.107200000000     0.381390000000     0.0324306  
C104     C      0.391150000000     0.118860000000     0.446910000000     0.0330026  
C105     C      0.421680000000     0.411170000000     0.134050000000     0.032874   
C106     C      0.431070000000     0.399930000000     0.068020000000     0.0321596  
C107     C      0.395310000000     0.435440000000     0.061170000000     0.0329036  
C108     C      0.386670000000     0.447430000000     0.127180000000     0.0321365  
C109     C      0.431930000000     0.150740000000     0.184280000000     0.0322036  
C110     C      0.418420000000     0.141220000000     0.118380000000     0.0328357  
C111     C      0.383150000000     0.105260000000     0.125650000000     0.0321491  
C112     C      0.395940000000     0.115520000000     0.191550000000     0.0329185  
C113     C      0.881260000000     0.947730000000     0.494020000000     0.0323259  
C114     C      0.891460000000     0.935860000000     0.428130000000     0.0328939  
C115     C      0.927610000000     0.900880000000     0.435460000000     0.0321488  
C116     C      0.916730000000     0.912090000000     0.001340000000     0.0333969  
C117     C      0.632800000000     0.947160000000     0.376390000000     0.0322267  
C118     C      0.622440000000     0.935500000000     0.442330000000     0.0329204  
C119     C      0.586580000000     0.900040000000     0.435160000000     0.0322514  
C120     C      0.597660000000     0.910960000000     0.369220000000     0.0328807  
C121     C      0.653630000000     0.180920000000     0.991590000000     0.0347038  
C122     C      0.692280000000     0.143330000000     0.044240000000     0.0321629  
C123     C      0.664150000000     0.171650000000     0.068810000000     0.0342947  
C124     C      0.625710000000     0.209470000000     0.016170000000     0.0316478  
C125     C      0.893360000000     0.930310000000     0.188860000000     0.033007   
C126     C      0.883840000000     0.944070000000     0.254590000000     0.0322927  
C127     C      0.918480000000     0.907770000000     0.262340000000     0.0329273  
C128     C      0.928620000000     0.894610000000     0.196590000000     0.0323843  
C129     C      0.627000000000     0.931960000000     0.197520000000     0.0330495  
C130     C      0.639560000000     0.944950000000     0.131960000000     0.0325974  
C131     C      0.604250000000     0.909370000000     0.123640000000     0.0329993  
C132     C      0.591120000000     0.896960000000     0.189200000000     0.0323961  
C133     C      0.688990000000     0.138890000000     0.301060000000     0.030648   
C134     C      0.654490000000     0.176950000000     0.246890000000     0.0349544  
C135     C      0.625020000000     0.205570000000     0.270210000000     0.031731   
C136     C      0.659410000000     0.167420000000     0.324390000000     0.035792   
C137     C      0.631720000000     0.604200000000     0.377430000000     0.0320949  
C138     C      0.621160000000     0.616380000000     0.311470000000     0.032842   
C139     C      0.585440000000     0.651700000000     0.318540000000     0.0321394  
C140     C      0.596720000000     0.640240000000     0.384510000000     0.0328461  
C141     C      0.878220000000     0.604230000000     0.259090000000     0.0322897  
C142     C      0.892340000000     0.614350000000     0.324860000000     0.0328153  
C143     C      0.928770000000     0.648970000000     0.317160000000     0.0322132  
C144     C      0.913980000000     0.639520000000     0.251420000000     0.0329613  
C145     C      0.664800000000     0.378160000000     0.184650000000     0.0343781  
C146     C      0.624300000000     0.341790000000     0.236690000000     0.0313723  
C147     C      0.651800000000     0.370710000000     0.261660000000     0.0351916  
C148     C      0.692540000000     0.406820000000     0.209630000000     0.0324229  
C149     C      0.590000000000     0.655080000000     0.064990000000     0.0323624  
C150     C      0.603410000000     0.642150000000     0.130580000000     0.0329267  
C151     C      0.638530000000     0.606710000000     0.122340000000     0.0324188  
C152     C      0.625690000000     0.620180000000     0.056750000000     0.0329488  
C153     C      0.893790000000     0.620310000000     0.064390000000     0.0330038  
C154     C      0.880480000000     0.607870000000     0.998760000000     0.0320703  
C155     C      0.915420000000     0.643820000000     0.990620000000     0.0328833  
C156     C      0.929300000000     0.655650000000     0.056250000000     0.032499   
C157     C      0.652210000000     0.374720000000     0.007140000000     0.0355025  
C158     C      0.689170000000     0.410700000000     0.953350000000     0.0309709  
C159     C      0.660080000000     0.381610000000     0.429680000000     0.0356731  
C160     C      0.623240000000     0.345520000000     0.483470000000     0.0316072  
C161     C      0.089120000000     0.395180000000     0.307230000000     0.0323956  
C162     C      0.100790000000     0.408190000000     0.241560000000     0.0329691  
C163     C      0.135590000000     0.444390000000     0.249610000000     0.0322613  
C164     C      0.124520000000     0.430760000000     0.315260000000     0.033071   
C165     C      0.101730000000     0.139410000000     0.251870000000     0.0329065  
C166     C      0.088680000000     0.150590000000     0.186060000000     0.0320464  
C167     C      0.124800000000     0.115840000000     0.178500000000     0.0328506  
C168     C      0.137190000000     0.104010000000     0.244320000000     0.0322755  
C169     C      0.855110000000     0.168500000000     0.301330000000     0.0356432  
C170     C      0.891250000000     0.207960000000     0.354200000000     0.0325058  
C171     C      0.862110000000     0.180120000000     0.378550000000     0.034043   
C172     C      0.825740000000     0.140860000000     0.325690000000     0.0307354  
C173     C      0.865480000000     0.373750000000     0.114190000000     0.0355904  
C174     C      0.827950000000     0.409120000000     0.167760000000     0.0323115  
C175     C      0.856440000000     0.379670000000     0.191590000000     0.0343312  
C176     C      0.893820000000     0.344140000000     0.138030000000     0.0307348  
C177     C      0.126190000000     0.436530000000     0.075730000000     0.0328859  
C178     C      0.137770000000     0.448110000000     0.009910000000     0.0324988  
C179     C      0.102130000000     0.412550000000     0.002370000000     0.0331767  
C180     C      0.089870000000     0.401660000000     0.068180000000     0.032178   
C181     C      0.099660000000     0.143450000000     0.012940000000     0.0330055  
C182     C      0.087820000000     0.157060000000     0.447260000000     0.0323145  
C183     C      0.123000000000     0.121560000000     0.439310000000     0.032917   
C184     C      0.134250000000     0.107350000000     0.504970000000     0.0321704  
C185     C      0.896540000000     0.207070000000     0.116910000000     0.0303926  
C186     C      0.855970000000     0.173480000000     0.063510000000     0.0342562  
C187     C      0.827720000000     0.144110000000     0.087390000000     0.0325845  
C188     C      0.868400000000     0.177550000000     0.140820000000     0.0359952  
C189     C      0.858800000000     0.370880000000     0.376400000000     0.033841   
C190     C      0.825730000000     0.412240000000     0.429160000000     0.0305694  
C191     C      0.855270000000     0.384470000000     0.453510000000     0.0356999  
C192     C      0.888090000000     0.342930000000     0.400740000000     0.0329107  
C193     C      0.044400000000     0.205040000000     0.491980000000     0.409235   
C194     C      0.917800000000     0.325130000000     0.962730000000     0.409544   
C195     C      0.920210000000     0.231100000000     0.554800000000     0.408626   
C196     C      0.045280000000     0.352880000000     0.524020000000     0.409471   
C197     C      0.044810000000     0.199050000000     0.730280000000     0.409624   
C198     C      0.919590000000     0.320990000000     0.700050000000     0.409147   
C199     C      0.918820000000     0.226740000000     0.792040000000     0.4092     
C200     C      0.045250000000     0.346810000000     0.762440000000     0.409634   
C201     C      0.686320000000     0.563640000000     0.577320000000     0.409453   
C202     C      0.807130000000     0.437330000000     0.605940000000     0.409341   
C203     C      0.711180000000     0.437980000000     0.515140000000     0.409251   
C204     C      0.833060000000     0.563750000000     0.543740000000     0.409402   
C205     C      0.680970000000     0.560100000000     0.833910000000     0.409814   
C206     C      0.801900000000     0.435330000000     0.866620000000     0.408591   
C207     C      0.710260000000     0.433990000000     0.772250000000     0.409103   
C208     C      0.830010000000     0.559930000000     0.803450000000     0.409567   
C209     C      0.834800000000     0.988020000000     0.710210000000     0.409692   
C210     C      0.712910000000     0.113520000000     0.739440000000     0.409018   
C211     C      0.808710000000     0.114990000000     0.649120000000     0.40906    
C212     C      0.687760000000     0.988410000000     0.677130000000     0.409668   
C213     C      0.831410000000     0.991640000000     0.950190000000     0.409383   
C214     C      0.711670000000     0.117530000000     0.481750000000     0.408831   
C215     C      0.803610000000     0.116830000000     0.888170000000     0.40882    
C216     C      0.682340000000     0.991730000000     0.920100000000     0.409464   
C217     C      0.476120000000     0.350320000000     0.611330000000     0.409679   
C218     C      0.600930000000     0.229760000000     0.578770000000     0.408561   
C219     C      0.600960000000     0.320490000000     0.673720000000     0.408359   
C220     C      0.475400000000     0.200730000000     0.640570000000     0.409449   
C221     C      0.470760000000     0.348330000000     0.859480000000     0.409482   
C222     C      0.596520000000     0.226530000000     0.831610000000     0.409472   
C223     C      0.596540000000     0.322920000000     0.921660000000     0.408919   
C224     C      0.470100000000     0.201700000000     0.893260000000     0.409412   
C225     C      0.336370000000     0.491880000000     0.583950000000     0.409698   
C226     C      0.215260000000     0.616610000000     0.616550000000     0.408521   
C227     C      0.306930000000     0.618120000000     0.522740000000     0.40881    
C228     C      0.187150000000     0.492040000000     0.554060000000     0.409131   
C229     C      0.184030000000     0.488250000000     0.794440000000     0.409281   
C230     C      0.306000000000     0.614020000000     0.765730000000     0.409001   
C231     C      0.210150000000     0.614560000000     0.856070000000     0.409013   
C232     C      0.331060000000     0.488270000000     0.827520000000     0.409376   
C233     C      0.547310000000     0.849080000000     0.644070000000     0.409697   
C234     C      0.421350000000     0.727650000000     0.672460000000     0.408912   
C235     C      0.420400000000     0.824080000000     0.582260000000     0.409506   
C236     C      0.546660000000     0.702570000000     0.610080000000     0.409736   
C237     C      0.542080000000     0.850430000000     0.891540000000     0.409749   
C238     C      0.416950000000     0.730440000000     0.924560000000     0.408389   
C239     C      0.416130000000     0.821190000000     0.829460000000     0.408713   
C240     C      0.541360000000     0.700910000000     0.862100000000     0.409628   
C241     C      0.334710000000     0.060320000000     0.669520000000     0.409711   
C242     C      0.213470000000     0.935390000000     0.637610000000     0.408956   
C243     C      0.305420000000     0.934370000000     0.731690000000     0.409273   
C244     C      0.185850000000     0.060380000000     0.700180000000     0.409781   
C245     C      0.182280000000     0.063890000000     0.960290000000     0.409527   
C246     C      0.303980000000     0.938200000000     0.489460000000     0.408929   
C247     C      0.208110000000     0.937150000000     0.898600000000     0.409392   
C248     C      0.329060000000     0.063490000000     0.926700000000     0.40929    
C249     C      0.972590000000     0.852110000000     0.479410000000     0.409419   
C250     C      0.097560000000     0.729990000000     0.949330000000     0.409139   
C251     C      0.099020000000     0.824230000000     0.541070000000     0.409247   
C252     C      0.972240000000     0.704290000000     0.511380000000     0.409317   
C253     C      0.972960000000     0.846120000000     0.741040000000     0.409459   
C254     C      0.099260000000     0.725860000000     0.711810000000     0.409286   
C255     C      0.097520000000     0.819860000000     0.803810000000     0.408655   
C256     C      0.972250000000     0.698150000000     0.772890000000     0.409496   
C257     C      0.189370000000     0.907660000000     0.836830000000     0.0325851  
C258     C      0.148920000000     0.874110000000     0.890030000000     0.0359081  
C259     C      0.121070000000     0.844240000000     0.866010000000     0.0304897  
C260     C      0.161390000000     0.877950000000     0.812830000000     0.0342659  
C261     C      0.155580000000     0.871530000000     0.627800000000     0.0340537  
C262     C      0.191420000000     0.911030000000     0.575050000000     0.0306515  
C263     C      0.162290000000     0.883010000000     0.550580000000     0.0357732  
C264     C      0.126690000000     0.843310000000     0.603340000000     0.032615   
C265     C      0.352930000000     0.879430000000     0.819080000000     0.0342462  
C266     C      0.390990000000     0.841760000000     0.766710000000     0.031602   
C267     C      0.363120000000     0.870600000000     0.741930000000     0.0350056  
C268     C      0.324810000000     0.907990000000     0.794310000000     0.0322349  
C269     C      0.391490000000     0.845450000000     0.520720000000     0.0319586  
C270     C      0.357590000000     0.883370000000     0.574710000000     0.0357331  
C271     C      0.328010000000     0.912210000000     0.551220000000     0.0307326  
C272     C      0.362040000000     0.874380000000     0.497240000000     0.0348684  
C273     C      0.151510000000     0.677820000000     0.863870000000     0.0357321  
C274     C      0.189330000000     0.642260000000     0.917730000000     0.0322632  
C275     C      0.160790000000     0.671450000000     0.941340000000     0.0343228  
C276     C      0.123110000000     0.707160000000     0.887490000000     0.0305173  
C277     C      0.328220000000     0.640660000000     0.703970000000     0.0309705  
C278     C      0.365440000000     0.676800000000     0.757830000000     0.0353437  
C279     C      0.394650000000     0.705590000000     0.734220000000     0.0313996  
C280     C      0.357530000000     0.669340000000     0.680350000000     0.0357049  
C281     C      0.157840000000     0.680560000000     0.625870000000     0.0338361  
C282     C      0.191590000000     0.639340000000     0.678900000000     0.0305676  
C283     C      0.162020000000     0.666850000000     0.703030000000     0.03572    
C284     C      0.128500000000     0.708230000000     0.649990000000     0.0327624  
C285     C      0.393650000000     0.709450000000     0.487450000000     0.0312792  
C286     C      0.352790000000     0.673180000000     0.935250000000     0.034278   
C287     C      0.324840000000     0.644870000000     0.960130000000     0.0324502  
C288     C      0.365910000000     0.680880000000     0.512330000000     0.035258   
C289     C      0.415000000000     0.409060000000     0.880290000000     0.0330123  
C290     C      0.426470000000     0.396300000000     0.814630000000     0.0322395  
C291     C      0.390780000000     0.431460000000     0.806620000000     0.0330595  
C292     C      0.379890000000     0.444780000000     0.872270000000     0.0323742  
C293     C      0.427190000000     0.153560000000     0.938490000000     0.0323432  
C294     C      0.411760000000     0.142470000000     0.872980000000     0.0330346  
C295     C      0.376270000000     0.107200000000     0.881390000000     0.0324174  
C296     C      0.391150000000     0.118870000000     0.946910000000     0.0329646  
C297     C      0.421680000000     0.411170000000     0.634050000000     0.0328643  
C298     C      0.431070000000     0.399930000000     0.568020000000     0.032133   
C299     C      0.395310000000     0.435450000000     0.561170000000     0.0329299  
C300     C      0.386660000000     0.447430000000     0.627180000000     0.032155   
C301     C      0.431930000000     0.150740000000     0.684270000000     0.0323598  
C302     C      0.418430000000     0.141220000000     0.618390000000     0.0329289  
C303     C      0.383150000000     0.105260000000     0.625650000000     0.0320995  
C304     C      0.395940000000     0.115520000000     0.691560000000     0.0327583  
C305     C      0.881260000000     0.947730000000     0.994020000000     0.0318452  
C306     C      0.891460000000     0.935860000000     0.928130000000     0.0328527  
C307     C      0.927610000000     0.900880000000     0.935460000000     0.0321593  
C308     C      0.916730000000     0.912090000000     0.501340000000     0.032958   
C309     C      0.632800000000     0.947160000000     0.876390000000     0.0321762  
C310     C      0.622450000000     0.935490000000     0.942330000000     0.0328988  
C311     C      0.586580000000     0.900040000000     0.935160000000     0.0322501  
C312     C      0.597660000000     0.910950000000     0.869220000000     0.0329233  
C313     C      0.653630000000     0.180920000000     0.491590000000     0.0350335  
C314     C      0.692270000000     0.143330000000     0.544240000000     0.0321905  
C315     C      0.664150000000     0.171650000000     0.568810000000     0.0342418  
C316     C      0.625720000000     0.209470000000     0.516170000000     0.0314147  
C317     C      0.893370000000     0.930310000000     0.688860000000     0.0329693  
C318     C      0.883840000000     0.944080000000     0.754590000000     0.0322797  
C319     C      0.918480000000     0.907770000000     0.762340000000     0.0329491  
C320     C      0.928620000000     0.894610000000     0.696590000000     0.0324072  
C321     C      0.627000000000     0.931970000000     0.697520000000     0.0330743  
C322     C      0.639560000000     0.944950000000     0.631960000000     0.0325955  
C323     C      0.604250000000     0.909370000000     0.623640000000     0.0330021  
C324     C      0.591120000000     0.896960000000     0.689200000000     0.0323834  
C325     C      0.688990000000     0.138890000000     0.801060000000     0.030655   
C326     C      0.654490000000     0.176950000000     0.746890000000     0.0349515  
C327     C      0.625020000000     0.205570000000     0.770210000000     0.0317384  
C328     C      0.659410000000     0.167420000000     0.824390000000     0.0358101  
C329     C      0.631720000000     0.604200000000     0.877430000000     0.0321078  
C330     C      0.621160000000     0.616380000000     0.811470000000     0.032816   
C331     C      0.585440000000     0.651700000000     0.818540000000     0.0322095  
C332     C      0.596720000000     0.640240000000     0.884510000000     0.0327876  
C333     C      0.878220000000     0.604230000000     0.759090000000     0.0323075  
C334     C      0.892340000000     0.614350000000     0.824850000000     0.0328889  
C335     C      0.928770000000     0.648970000000     0.817160000000     0.0321705  
C336     C      0.913980000000     0.639520000000     0.751420000000     0.032953   
C337     C      0.664800000000     0.378160000000     0.684650000000     0.0342911  
C338     C      0.624300000000     0.341790000000     0.736690000000     0.0314715  
C339     C      0.651790000000     0.370710000000     0.761660000000     0.0351113  
C340     C      0.692540000000     0.406820000000     0.709630000000     0.0324589  
C341     C      0.590000000000     0.655070000000     0.564990000000     0.0323475  
C342     C      0.603410000000     0.642150000000     0.630580000000     0.0329347  
C343     C      0.638530000000     0.606710000000     0.622340000000     0.0324166  
C344     C      0.625690000000     0.620180000000     0.556750000000     0.0329082  
C345     C      0.893790000000     0.620310000000     0.564390000000     0.0329632  
C346     C      0.880480000000     0.607880000000     0.498760000000     0.0322099  
C347     C      0.915410000000     0.643830000000     0.490620000000     0.0329882  
C348     C      0.929300000000     0.655650000000     0.556250000000     0.0324876  
C349     C      0.652210000000     0.374720000000     0.507140000000     0.0352005  
C350     C      0.689170000000     0.410700000000     0.453360000000     0.0309981  
C351     C      0.660080000000     0.381610000000     0.929680000000     0.0356373  
C352     C      0.623240000000     0.345520000000     0.983470000000     0.0313903  
C353     C      0.089120000000     0.395180000000     0.807230000000     0.0324167  
C354     C      0.100790000000     0.408190000000     0.741560000000     0.032978   
C355     C      0.135600000000     0.444390000000     0.749610000000     0.032266   
C356     C      0.124520000000     0.430760000000     0.815260000000     0.0330533  
C357     C      0.101730000000     0.139410000000     0.751870000000     0.03291    
C358     C      0.088680000000     0.150590000000     0.686060000000     0.0320572  
C359     C      0.124800000000     0.115840000000     0.678500000000     0.0328361  
C360     C      0.137190000000     0.104010000000     0.744320000000     0.0322764  
C361     C      0.855110000000     0.168500000000     0.801330000000     0.0356027  
C362     C      0.891250000000     0.207960000000     0.854200000000     0.0325837  
C363     C      0.862110000000     0.180120000000     0.878560000000     0.0339232  
C364     C      0.825740000000     0.140860000000     0.825690000000     0.030795   
C365     C      0.865480000000     0.373750000000     0.614190000000     0.0356375  
C366     C      0.827950000000     0.409120000000     0.667760000000     0.0322632  
C367     C      0.856440000000     0.379680000000     0.691590000000     0.0343178  
C368     C      0.893820000000     0.344140000000     0.638030000000     0.0307108  
C369     C      0.126190000000     0.436540000000     0.575730000000     0.0329169  
C370     C      0.137770000000     0.448110000000     0.509900000000     0.0323099  
C371     C      0.102140000000     0.412550000000     0.502360000000     0.0329445  
C372     C      0.089870000000     0.401660000000     0.568180000000     0.0321328  
C373     C      0.099660000000     0.143450000000     0.512940000000     0.0329444  
C374     C      0.087820000000     0.157070000000     0.947260000000     0.0323698  
C375     C      0.123000000000     0.121550000000     0.939310000000     0.0329181  
C376     C      0.134250000000     0.107350000000     0.004970000000     0.0323326  
C377     C      0.896540000000     0.207070000000     0.616910000000     0.0303371  
C378     C      0.855970000000     0.173480000000     0.563500000000     0.0341831  
C379     C      0.827720000000     0.144110000000     0.587390000000     0.032616   
C380     C      0.868400000000     0.177550000000     0.640810000000     0.0360547  
C381     C      0.858800000000     0.370880000000     0.876400000000     0.0338539  
C382     C      0.825740000000     0.412240000000     0.929160000000     0.0305671  
C383     C      0.855270000000     0.384470000000     0.953510000000     0.0356967  
C384     C      0.888090000000     0.342930000000     0.900740000000     0.0329003  
H1       H      0.215380000000     0.932720000000     0.324060000000     0.0493406  
H2       H      0.142590000000     0.871650000000     0.420370000000     0.0455283  
H3       H      0.093840000000     0.820440000000     0.378670000000     0.055346   
H4       H      0.167320000000     0.880860000000     0.282460000000     0.0464161  
H5       H      0.151530000000     0.865990000000     0.158140000000     0.0465834  
H6       H      0.215810000000     0.937990000000     0.062700000000     0.0542593  
H7       H      0.165860000000     0.888960000000     0.020240000000     0.0456349  
H8       H      0.101060000000     0.817550000000     0.115760000000     0.0488976  
H9       H      0.347960000000     0.884360000000     0.349370000000     0.0465624  
H10      H      0.417340000000     0.816750000000     0.254580000000     0.0513714  
H11      H      0.368580000000     0.866170000000     0.211640000000     0.0460803  
H12      H      0.299720000000     0.934270000000     0.306450000000     0.0495558  
H13      H      0.416660000000     0.820180000000     0.007440000000     0.0510765  
H14      H      0.354870000000     0.888320000000     0.105190000000     0.0456401  
H15      H      0.304130000000     0.938740000000     0.064430000000     0.0542967  
H16      H      0.365190000000     0.869820000000     0.966750000000     0.0461409  
H17      H      0.146450000000     0.681310000000     0.333390000000     0.0455197  
H18      H      0.214390000000     0.616500000000     0.430900000000     0.0496458  
H19      H      0.165450000000     0.667520000000     0.471820000000     0.0466791  
H20      H      0.096780000000     0.731630000000     0.374380000000     0.0549121  
H21      H      0.303140000000     0.614850000000     0.190830000000     0.0539281  
H22      H      0.369980000000     0.680700000000     0.288310000000     0.0460443  
H23      H      0.421050000000     0.730080000000     0.247360000000     0.052309   
H24      H      0.353390000000     0.665020000000     0.149870000000     0.0453653  
H25      H      0.154790000000     0.687000000000     0.095530000000     0.0466303  
H26      H      0.215230000000     0.611830000000     0.191470000000     0.0544429  
H27      H      0.164590000000     0.660000000000     0.233340000000     0.0460067  
H28      H      0.103590000000     0.734530000000     0.137310000000     0.048489   
H29      H      0.421110000000     0.733750000000     0.999450000000     0.0522884  
H30      H      0.346620000000     0.668730000000     0.404980000000     0.0463439  
H31      H      0.298690000000     0.619220000000     0.448080000000     0.049496   
H32      H      0.372540000000     0.684820000000     0.042590000000     0.0461206  
H33      H      0.423340000000     0.401210000000     0.409850000000     0.0440373  
H34      H      0.443940000000     0.377970000000     0.291020000000     0.0456437  
H35      H      0.382180000000     0.439060000000     0.277070000000     0.0438235  
H36      H      0.362340000000     0.463020000000     0.395880000000     0.0457377  
H37      H      0.446420000000     0.171040000000     0.461900000000     0.0458587  
H38      H      0.418620000000     0.150840000000     0.343350000000     0.0439219  
H39      H      0.356980000000     0.089790000000     0.357980000000     0.0459828  
H40      H      0.384040000000     0.110750000000     0.976540000000     0.0436319  
H41      H      0.430860000000     0.402550000000     0.163330000000     0.0436636  
H42      H      0.447660000000     0.382040000000     0.043830000000     0.0455666  
H43      H      0.385810000000     0.443750000000     0.031900000000     0.0439122  
H44      H      0.369990000000     0.465240000000     0.151370000000     0.045431   
H45      H      0.450290000000     0.167820000000     0.208270000000     0.0457706  
H46      H      0.426030000000     0.150440000000     0.089020000000     0.0435376  
H47      H      0.364710000000     0.088230000000     0.101670000000     0.0457373  
H48      H      0.388040000000     0.106620000000     0.220930000000     0.0437779  
H49      H      0.863840000000     0.965310000000     0.017990000000     0.0459573  
H50      H      0.882440000000     0.944010000000     0.398740000000     0.0435199  
H51      H      0.944970000000     0.883210000000     0.411500000000     0.0455042  
H52      H      0.925440000000     0.903680000000     0.030740000000     0.0440332  
H53      H      0.650220000000     0.964830000000     0.352350000000     0.0456436  
H54      H      0.631290000000     0.943920000000     0.471690000000     0.0438804  
H55      H      0.569250000000     0.882300000000     0.459210000000     0.0457562  
H56      H      0.589120000000     0.902210000000     0.339870000000     0.0435611  
H57      H      0.648040000000     0.185520000000     0.461260000000     0.0461284  
H58      H      0.717470000000     0.117040000000     0.056570000000     0.04965    
H59      H      0.669270000000     0.166540000000     0.099140000000     0.0466328  
H60      H      0.599190000000     0.234430000000     0.003850000000     0.0517587  
H61      H      0.884380000000     0.937920000000     0.159380000000     0.0441715  
H62      H      0.866990000000     0.962690000000     0.278340000000     0.0455816  
H63      H      0.927200000000     0.899890000000     0.291820000000     0.0436352  
H64      H      0.945380000000     0.875930000000     0.172840000000     0.045764   
H65      H      0.634980000000     0.939650000000     0.227140000000     0.0437618  
H66      H      0.657860000000     0.963000000000     0.108490000000     0.04592    
H67      H      0.596510000000     0.901430000000     0.094030000000     0.0439873  
H68      H      0.572900000000     0.878840000000     0.212670000000     0.0458627  
H69      H      0.713030000000     0.112340000000     0.314400000000     0.0545165  
H70      H      0.651150000000     0.181720000000     0.216390000000     0.0461447  
H71      H      0.599650000000     0.230810000000     0.256800000000     0.0514336  
H72      H      0.662330000000     0.162250000000     0.354880000000     0.0456895  
H73      H      0.649140000000     0.586360000000     0.401520000000     0.0456054  
H74      H      0.629880000000     0.608230000000     0.282140000000     0.0437995  
H75      H      0.568090000000     0.669610000000     0.294450000000     0.0456523  
H76      H      0.588320000000     0.648710000000     0.413840000000     0.0435711  
H77      H      0.859100000000     0.587470000000     0.235310000000     0.0459201  
H78      H      0.884800000000     0.605610000000     0.354320000000     0.0434108  
H79      H      0.947830000000     0.665800000000     0.340940000000     0.0457239  
H80      H      0.921210000000     0.648540000000     0.221960000000     0.0439642  
H81      H      0.670910000000     0.382530000000     0.154410000000     0.0462817  
H82      H      0.597060000000     0.317300000000     0.248580000000     0.0519145  
H83      H      0.645220000000     0.366850000000     0.291880000000     0.0461578  
H84      H      0.718510000000     0.432600000000     0.197670000000     0.0495368  
H85      H      0.571740000000     0.673370000000     0.041480000000     0.045749   
H86      H      0.595860000000     0.649840000000     0.160180000000     0.0439763  
H87      H      0.656860000000     0.588500000000     0.145850000000     0.0458709  
H88      H      0.633500000000     0.612730000000     0.027150000000     0.0437224  
H89      H      0.886240000000     0.612280000000     0.093970000000     0.0440532  
H90      H      0.862000000000     0.589920000000     0.975210000000     0.045849   
H91      H      0.922730000000     0.652130000000     0.961050000000     0.0434748  
H92      H      0.947700000000     0.673660000000     0.079820000000     0.045989   
H93      H      0.647690000000     0.371030000000     0.037600000000     0.0459668  
H94      H      0.714100000000     0.436570000000     0.940260000000     0.0538651  
H95      H      0.664180000000     0.385720000000     0.399200000000     0.0453124  
H96      H      0.597000000000     0.320970000000     0.496570000000     0.0520318  
H97      H      0.071670000000     0.376600000000     0.330840000000     0.0459822  
H98      H      0.092630000000     0.400270000000     0.212010000000     0.0435149  
H99      H      0.153140000000     0.462910000000     0.226010000000     0.0457328  
H100     H      0.132930000000     0.438400000000     0.344820000000     0.0440853  
H101     H      0.093910000000     0.147760000000     0.281320000000     0.0440195  
H102     H      0.070450000000     0.168170000000     0.162220000000     0.0456512  
H103     H      0.132930000000     0.107750000000     0.149060000000     0.0433685  
H104     H      0.155480000000     0.086530000000     0.268180000000     0.045798   
H105     H      0.851390000000     0.162510000000     0.270990000000     0.0456251  
H106     H      0.917170000000     0.233500000000     0.366710000000     0.0490914  
H107     H      0.866300000000     0.185680000000     0.408910000000     0.0466604  
H108     H      0.801080000000     0.114100000000     0.313250000000     0.0540445  
H109     H      0.870430000000     0.370430000000     0.083750000000     0.0455324  
H110     H      0.802980000000     0.434850000000     0.180730000000     0.0495485  
H111     H      0.851890000000     0.383430000000     0.222030000000     0.046564   
H112     H      0.919980000000     0.319610000000     0.125120000000     0.0544993  
H113     H      0.134720000000     0.444780000000     0.105170000000     0.0434714  
H114     H      0.155820000000     0.465540000000     0.986050000000     0.0456728  
H115     H      0.093910000000     0.404030000000     0.972920000000     0.043856   
H116     H      0.071880000000     0.384150000000     0.092040000000     0.0457081  
H117     H      0.091650000000     0.151090000000     0.042480000000     0.0434854  
H118     H      0.070390000000     0.175860000000     0.423620000000     0.045874   
H119     H      0.131270000000     0.114190000000     0.409780000000     0.0440672  
H120     H      0.151770000000     0.088630000000     0.028610000000     0.0456996  
H121     H      0.923980000000     0.230690000000     0.129700000000     0.0557022  
H122     H      0.850030000000     0.170490000000     0.033100000000     0.0464873  
H123     H      0.801540000000     0.119190000000     0.074480000000     0.0492857  
H124     H      0.874730000000     0.180080000000     0.171200000000     0.0455199  
H125     H      0.861590000000     0.364470000000     0.346090000000     0.046489   
H126     H      0.802350000000     0.439870000000     0.441530000000     0.0543637  
H127     H      0.852970000000     0.391270000000     0.983800000000     0.0459283  
H128     H      0.912680000000     0.316460000000     0.388260000000     0.0482423  
H129     H      0.215390000000     0.932720000000     0.824060000000     0.0493492  
H130     H      0.142590000000     0.871650000000     0.920370000000     0.0455074  
H131     H      0.093840000000     0.820440000000     0.878660000000     0.055348   
H132     H      0.167320000000     0.880860000000     0.782460000000     0.0464021  
H133     H      0.151530000000     0.865990000000     0.658140000000     0.0465761  
H134     H      0.215810000000     0.937990000000     0.562700000000     0.0542512  
H135     H      0.165860000000     0.888960000000     0.520240000000     0.0455865  
H136     H      0.101060000000     0.817550000000     0.615750000000     0.0488992  
H137     H      0.347960000000     0.884360000000     0.849380000000     0.046551   
H138     H      0.417340000000     0.816750000000     0.754580000000     0.0513736  
H139     H      0.368580000000     0.866170000000     0.711640000000     0.046078   
H140     H      0.299720000000     0.934270000000     0.806450000000     0.0495532  
H141     H      0.416660000000     0.820180000000     0.507440000000     0.0510681  
H142     H      0.354870000000     0.888320000000     0.605190000000     0.0456421  
H143     H      0.304130000000     0.938740000000     0.564430000000     0.0542827  
H144     H      0.365190000000     0.869810000000     0.466750000000     0.0460806  
H145     H      0.146450000000     0.681310000000     0.833390000000     0.0455156  
H146     H      0.214390000000     0.616500000000     0.930900000000     0.0496223  
H147     H      0.165450000000     0.667520000000     0.971820000000     0.0466469  
H148     H      0.096780000000     0.731640000000     0.874380000000     0.0549125  
H149     H      0.303140000000     0.614850000000     0.690830000000     0.0539297  
H150     H      0.369980000000     0.680700000000     0.788310000000     0.0460352  
H151     H      0.421050000000     0.730080000000     0.747360000000     0.0523384  
H152     H      0.353390000000     0.665020000000     0.649870000000     0.0453539  
H153     H      0.154790000000     0.687000000000     0.595530000000     0.0466173  
H154     H      0.215230000000     0.611840000000     0.691470000000     0.054432   
H155     H      0.164590000000     0.660000000000     0.733340000000     0.0460182  
H156     H      0.103590000000     0.734530000000     0.637310000000     0.0484754  
H157     H      0.421110000000     0.733760000000     0.499450000000     0.052269   
H158     H      0.346620000000     0.668720000000     0.904980000000     0.0463289  
H159     H      0.298690000000     0.619220000000     0.948080000000     0.0494679  
H160     H      0.372540000000     0.684820000000     0.542590000000     0.0461987  
H161     H      0.423340000000     0.401220000000     0.909850000000     0.0440118  
H162     H      0.443940000000     0.377970000000     0.791030000000     0.0456659  
H163     H      0.382180000000     0.439060000000     0.777070000000     0.0437991  
H164     H      0.362340000000     0.463030000000     0.895880000000     0.0457203  
H165     H      0.446420000000     0.171040000000     0.961900000000     0.0458272  
H166     H      0.418620000000     0.150840000000     0.843350000000     0.0439148  
H167     H      0.356980000000     0.089790000000     0.857980000000     0.0459887  
H168     H      0.384040000000     0.110740000000     0.476540000000     0.0436586  
H169     H      0.430870000000     0.402550000000     0.663330000000     0.0436697  
H170     H      0.447660000000     0.382040000000     0.543830000000     0.0455377  
H171     H      0.385820000000     0.443750000000     0.531900000000     0.043861   
H172     H      0.369990000000     0.465240000000     0.651370000000     0.045422   
H173     H      0.450290000000     0.167820000000     0.708270000000     0.0457285  
H174     H      0.426030000000     0.150440000000     0.589020000000     0.0434845  
H175     H      0.364710000000     0.088230000000     0.601660000000     0.0457294  
H176     H      0.388040000000     0.106620000000     0.720930000000     0.0438233  
H177     H      0.863840000000     0.965310000000     0.517990000000     0.0457319  
H178     H      0.882440000000     0.944010000000     0.898740000000     0.0435264  
H179     H      0.944970000000     0.883210000000     0.911500000000     0.0454971  
H180     H      0.925450000000     0.903680000000     0.530740000000     0.0441157  
H181     H      0.650220000000     0.964840000000     0.852360000000     0.045667   
H182     H      0.631290000000     0.943910000000     0.971690000000     0.0438526  
H183     H      0.569250000000     0.882300000000     0.959210000000     0.045727   
H184     H      0.589120000000     0.902210000000     0.839870000000     0.0435473  
H185     H      0.648030000000     0.185510000000     0.961250000000     0.0461868  
H186     H      0.717470000000     0.117040000000     0.556570000000     0.049615   
H187     H      0.669270000000     0.166540000000     0.599140000000     0.0466421  
H188     H      0.599190000000     0.234430000000     0.503850000000     0.0517556  
H189     H      0.884380000000     0.937930000000     0.659380000000     0.0441808  
H190     H      0.866990000000     0.962690000000     0.778340000000     0.0455837  
H191     H      0.927200000000     0.899890000000     0.791820000000     0.0436259  
H192     H      0.945380000000     0.875920000000     0.672840000000     0.0457617  
H193     H      0.634980000000     0.939660000000     0.727140000000     0.0437557  
H194     H      0.657860000000     0.963010000000     0.608490000000     0.0459068  
H195     H      0.596520000000     0.901430000000     0.594030000000     0.0439572  
H196     H      0.572900000000     0.878830000000     0.712670000000     0.0458663  
H197     H      0.713030000000     0.112340000000     0.814400000000     0.0545161  
H198     H      0.651150000000     0.181720000000     0.716380000000     0.0461498  
H199     H      0.599650000000     0.230810000000     0.756800000000     0.0514239  
H200     H      0.662330000000     0.162250000000     0.854880000000     0.0456773  
H201     H      0.649150000000     0.586360000000     0.901520000000     0.0455876  
H202     H      0.629880000000     0.608230000000     0.782140000000     0.0438033  
H203     H      0.568090000000     0.669610000000     0.794450000000     0.0456262  
H204     H      0.588320000000     0.648710000000     0.913840000000     0.0435558  
H205     H      0.859100000000     0.587470000000     0.735310000000     0.045921   
H206     H      0.884810000000     0.605610000000     0.854320000000     0.0433797  
H207     H      0.947820000000     0.665800000000     0.840940000000     0.0457254  
H208     H      0.921210000000     0.648540000000     0.721960000000     0.0439621  
H209     H      0.670910000000     0.382530000000     0.654420000000     0.0463003  
H210     H      0.597060000000     0.317300000000     0.748580000000     0.0518909  
H211     H      0.645220000000     0.366860000000     0.791880000000     0.0461851  
H212     H      0.718510000000     0.432600000000     0.697670000000     0.0495292  
H213     H      0.571740000000     0.673370000000     0.541480000000     0.045717   
H214     H      0.595860000000     0.649840000000     0.660180000000     0.0439763  
H215     H      0.656860000000     0.588500000000     0.645860000000     0.0458652  
H216     H      0.633500000000     0.612730000000     0.527160000000     0.0437011  
H217     H      0.886230000000     0.612280000000     0.593970000000     0.044065   
H218     H      0.862000000000     0.589930000000     0.475200000000     0.0458556  
H219     H      0.922720000000     0.652140000000     0.461050000000     0.0434663  
H220     H      0.947700000000     0.673660000000     0.579820000000     0.0459847  
H221     H      0.647690000000     0.371030000000     0.537600000000     0.0460154  
H222     H      0.714100000000     0.436570000000     0.440260000000     0.0538875  
H223     H      0.664180000000     0.385710000000     0.899210000000     0.0453097  
H224     H      0.597000000000     0.320970000000     0.996570000000     0.0520135  
H225     H      0.071670000000     0.376600000000     0.830840000000     0.0459688  
H226     H      0.092630000000     0.400270000000     0.712010000000     0.0435081  
H227     H      0.153140000000     0.462900000000     0.726010000000     0.0457282  
H228     H      0.132930000000     0.438400000000     0.844820000000     0.0440841  
H229     H      0.093910000000     0.147760000000     0.781320000000     0.0440136  
H230     H      0.070450000000     0.168170000000     0.662220000000     0.0456441  
H231     H      0.132930000000     0.107750000000     0.649060000000     0.0433677  
H232     H      0.155480000000     0.086530000000     0.768180000000     0.0457988  
H233     H      0.851390000000     0.162510000000     0.770990000000     0.0456366  
H234     H      0.917170000000     0.233500000000     0.866710000000     0.0490686  
H235     H      0.866290000000     0.185680000000     0.908910000000     0.0466723  
H236     H      0.801080000000     0.114100000000     0.813250000000     0.0540298  
H237     H      0.870430000000     0.370430000000     0.583750000000     0.0455031  
H238     H      0.802980000000     0.434850000000     0.680730000000     0.0495605  
H239     H      0.851890000000     0.383430000000     0.722030000000     0.0465718  
H240     H      0.919980000000     0.319610000000     0.625120000000     0.0545032  
H241     H      0.134720000000     0.444780000000     0.605170000000     0.0434629  
H242     H      0.155820000000     0.465540000000     0.486050000000     0.0458352  
H243     H      0.093910000000     0.404020000000     0.472920000000     0.0440129  
H244     H      0.071880000000     0.384150000000     0.592030000000     0.0457221  
H245     H      0.091650000000     0.151090000000     0.542470000000     0.0434851  
H246     H      0.070390000000     0.175860000000     0.923620000000     0.0458472  
H247     H      0.131270000000     0.114190000000     0.909770000000     0.0440532  
H248     H      0.151770000000     0.088630000000     0.528610000000     0.0457019  
H249     H      0.923970000000     0.230690000000     0.629700000000     0.0557087  
H250     H      0.850030000000     0.170490000000     0.533100000000     0.0464595  
H251     H      0.801540000000     0.119190000000     0.574480000000     0.0492516  
H252     H      0.874730000000     0.180080000000     0.671200000000     0.045505   
H253     H      0.861590000000     0.364470000000     0.846090000000     0.0464848  
H254     H      0.802350000000     0.439870000000     0.941530000000     0.0543333  
H255     H      0.852970000000     0.391270000000     0.483790000000     0.0459678  
H256     H      0.912680000000     0.316460000000     0.888260000000     0.0482424  
In1      In     0.982230000000     0.278870000000     0.008470000000     2.4395     
In2      In     0.982400000000     0.272990000000     0.246020000000     2.439      
In3      In     0.759540000000     0.501010000000     0.060530000000     2.44419    
In4      In     0.755420000000     0.497700000000     0.319270000000     2.43111    
In5      In     0.761360000000     0.051110000000     0.194210000000     2.44474    
In6      In     0.757060000000     0.054310000000     0.435050000000     2.43266    
In7      In     0.538220000000     0.275230000000     0.125850000000     2.42852    
In8      In     0.533280000000     0.274720000000     0.376280000000     2.44566    
In9      In     0.261740000000     0.554540000000     0.069600000000     2.43212    
In10     In     0.257650000000     0.551170000000     0.311000000000     2.44496    
In11     In     0.484190000000     0.775800000000     0.127130000000     2.4461     
In12     In     0.479330000000     0.775700000000     0.376840000000     2.42848    
In13     In     0.260010000000     0.997970000000     0.184690000000     2.43269    
In14     In     0.255490000000     0.001030000000     0.443950000000     2.44305    
In15     In     0.035130000000     0.777890000000     0.994930000000     2.43921    
In16     In     0.035280000000     0.772000000000     0.257290000000     2.4388     
In17     In     0.982230000000     0.278870000000     0.508470000000     2.43885    
In18     In     0.982400000000     0.272990000000     0.746020000000     2.43916    
In19     In     0.759540000000     0.501010000000     0.560520000000     2.44427    
In20     In     0.755420000000     0.497700000000     0.819270000000     2.43099    
In21     In     0.761360000000     0.051110000000     0.694210000000     2.44467    
In22     In     0.757060000000     0.054310000000     0.935050000000     2.4323     
In23     In     0.538230000000     0.275230000000     0.625850000000     2.42868    
In24     In     0.533280000000     0.274720000000     0.876280000000     2.44621    
In25     In     0.261740000000     0.554540000000     0.569600000000     2.4321     
In26     In     0.257650000000     0.551170000000     0.811000000000     2.44507    
In27     In     0.484190000000     0.775800000000     0.627140000000     2.44594    
In28     In     0.479340000000     0.775700000000     0.876840000000     2.42875    
In29     In     0.260010000000     0.997970000000     0.684690000000     2.43269    
In30     In     0.255490000000     0.001030000000     0.943950000000     2.44296    
In31     In     0.035130000000     0.777890000000     0.494930000000     2.43984    
In32     In     0.035280000000     0.772010000000     0.757290000000     2.43886    
N1       N      0.182560000000     0.906120000000     0.375290000000    -0.17614    
N2       N      0.126940000000     0.846760000000     0.327480000000    -0.175579   
N3       N      0.187410000000     0.905720000000     0.113580000000    -0.17563    
N4       N      0.129590000000     0.849690000000     0.064850000000    -0.175987   
N5       N      0.386390000000     0.846860000000     0.305190000000    -0.175582   
N6       N      0.330590000000     0.904070000000     0.255840000000    -0.175834   
N7       N      0.389620000000     0.850480000000     0.059340000000    -0.176168   
N8       N      0.330810000000     0.908040000000     0.012570000000    -0.175589   
N9       N      0.184150000000     0.645090000000     0.379110000000    -0.176162   
N10      N      0.127390000000     0.703410000000     0.426140000000    -0.175729   
N11      N      0.332700000000     0.644070000000     0.242610000000    -0.175914   
N12      N      0.390980000000     0.701350000000     0.195580000000    -0.176072   
N13      N      0.188860000000     0.645800000000     0.140380000000    -0.175513   
N14      N      0.130140000000     0.700770000000     0.188430000000    -0.176116   
N15      N      0.387520000000     0.704950000000     0.448990000000    -0.175552   
N16      N      0.332030000000     0.648240000000     0.998550000000    -0.176019   
N17      N      0.437820000000     0.384630000000     0.351450000000    -0.176433   
N18      N      0.367300000000     0.455230000000     0.335470000000    -0.176385   
N19      N      0.436760000000     0.165830000000     0.401570000000    -0.176511   
N20      N      0.365530000000     0.096150000000     0.418330000000    -0.176512   
N21      N      0.443390000000     0.387210000000     0.104450000000    -0.176646   
N22      N      0.372880000000     0.458700000000     0.090780000000    -0.176552   
N23      N      0.442330000000     0.164150000000     0.147740000000    -0.176576   
N24      N      0.371350000000     0.093270000000     0.162220000000    -0.176699   
N25      N      0.868090000000     0.958810000000     0.457450000000    -0.176595   
N26      N      0.939420000000     0.888460000000     0.972040000000    -0.176555   
N27      N      0.645770000000     0.958580000000     0.412920000000    -0.176619   
N28      N      0.575030000000     0.887210000000     0.398640000000    -0.176659   
N29      N      0.686400000000     0.147520000000     0.005730000000    -0.175631   
N30      N      0.630540000000     0.204210000000     0.054690000000    -0.175641   
N31      N      0.870770000000     0.954570000000     0.217900000000    -0.17646    
N32      N      0.940400000000     0.882860000000     0.233310000000    -0.176495   
N33      N      0.651390000000     0.955490000000     0.168860000000    -0.176494   
N34      N      0.580500000000     0.885200000000     0.152300000000    -0.176539   
N35      N      0.686010000000     0.143350000000     0.262390000000    -0.175893   
N36      N      0.627170000000     0.200310000000     0.308850000000    -0.176138   
N37      N      0.644520000000     0.593110000000     0.340950000000    -0.176686   
N38      N      0.574070000000     0.664200000000     0.355040000000    -0.176643   
N39      N      0.866890000000     0.592450000000     0.295790000000    -0.176655   
N40      N      0.938780000000     0.662100000000     0.280490000000    -0.176521   
N41      N      0.630340000000     0.346200000000     0.198250000000    -0.175518   
N42      N      0.685370000000     0.403590000000     0.248000000000    -0.175833   
N43      N      0.579610000000     0.666530000000     0.101870000000    -0.176559   
N44      N      0.650130000000     0.596460000000     0.085470000000    -0.176537   
N45      N      0.869190000000     0.596900000000     0.035620000000    -0.176477   
N46      N      0.939360000000     0.667880000000     0.019410000000    -0.176448   
N47      N      0.684690000000     0.407590000000     0.991970000000    -0.176043   
N48      N      0.626850000000     0.349500000000     0.444840000000    -0.17602    
N49      N      0.078020000000     0.383420000000     0.270410000000    -0.176521   
N50      N      0.147950000000     0.454890000000     0.286430000000    -0.176412   
N51      N      0.077960000000     0.162920000000     0.222720000000    -0.176542   
N52      N      0.149240000000     0.093030000000     0.207670000000    -0.17669    
N53      N      0.888180000000     0.201530000000     0.315720000000    -0.176012   
N54      N      0.829880000000     0.146230000000     0.364230000000    -0.175641   
N55      N      0.833050000000     0.406540000000     0.129180000000    -0.176152   
N56      N      0.889690000000     0.347710000000     0.176640000000    -0.175702   
N57      N      0.150320000000     0.459290000000     0.046560000000    -0.176539   
N58      N      0.078660000000     0.389130000000     0.031530000000    -0.17657    
N59      N      0.076920000000     0.168490000000     0.984050000000    -0.176649   
N60      N      0.146420000000     0.097170000000     0.468200000000    -0.176509   
N61      N      0.890660000000     0.204450000000     0.078340000000    -0.175663   
N62      N      0.834480000000     0.145770000000     0.125920000000    -0.176162   
N63      N      0.828190000000     0.405880000000     0.390660000000    -0.175561   
N64      N      0.886820000000     0.350370000000     0.439150000000    -0.176094   
N65      N      0.182560000000     0.906130000000     0.875290000000    -0.176174   
N66      N      0.126940000000     0.846760000000     0.827480000000    -0.175617   
N67      N      0.187410000000     0.905710000000     0.613580000000    -0.175604   
N68      N      0.129590000000     0.849690000000     0.564850000000    -0.176036   
N69      N      0.386390000000     0.846860000000     0.805190000000    -0.175621   
N70      N      0.330590000000     0.904070000000     0.755840000000    -0.175839   
N71      N      0.389620000000     0.850480000000     0.559340000000    -0.17616    
N72      N      0.330810000000     0.908040000000     0.512570000000    -0.175788   
N73      N      0.184150000000     0.645090000000     0.879110000000    -0.176176   
N74      N      0.127390000000     0.703410000000     0.926140000000    -0.175704   
N75      N      0.332700000000     0.644070000000     0.742610000000    -0.17592    
N76      N      0.390980000000     0.701340000000     0.695580000000    -0.176046   
N77      N      0.188860000000     0.645790000000     0.640380000000    -0.175589   
N78      N      0.130130000000     0.700770000000     0.688430000000    -0.176137   
N79      N      0.387520000000     0.704940000000     0.948980000000    -0.175502   
N80      N      0.332030000000     0.648240000000     0.498550000000    -0.175813   
N81      N      0.437820000000     0.384630000000     0.851450000000    -0.176423   
N82      N      0.367300000000     0.455230000000     0.835470000000    -0.176416   
N83      N      0.436750000000     0.165830000000     0.901570000000    -0.176485   
N84      N      0.365530000000     0.096150000000     0.918330000000    -0.176483   
N85      N      0.443390000000     0.387210000000     0.604450000000    -0.176635   
N86      N      0.372880000000     0.458700000000     0.590780000000    -0.176603   
N87      N      0.442340000000     0.164150000000     0.647740000000    -0.17668    
N88      N      0.371350000000     0.093260000000     0.662220000000    -0.176655   
N89      N      0.868100000000     0.958800000000     0.957450000000    -0.176403   
N90      N      0.939420000000     0.888460000000     0.472040000000    -0.17646    
N91      N      0.645770000000     0.958580000000     0.912920000000    -0.176557   
N92      N      0.575030000000     0.887210000000     0.898640000000    -0.176675   
N93      N      0.686400000000     0.147520000000     0.505730000000    -0.175839   
N94      N      0.630540000000     0.204210000000     0.554690000000    -0.17562    
N95      N      0.870770000000     0.954570000000     0.717900000000    -0.17642    
N96      N      0.940390000000     0.882860000000     0.733310000000    -0.176496   
N97      N      0.651390000000     0.955490000000     0.668860000000    -0.176514   
N98      N      0.580500000000     0.885200000000     0.652300000000    -0.176553   
N99      N      0.686020000000     0.143350000000     0.762390000000    -0.175918   
N100     N      0.627170000000     0.200310000000     0.808850000000    -0.176218   
N101     N      0.644520000000     0.593120000000     0.840950000000    -0.176638   
N102     N      0.574070000000     0.664200000000     0.855030000000    -0.176673   
N103     N      0.866890000000     0.592450000000     0.795790000000    -0.176677   
N104     N      0.938780000000     0.662100000000     0.780490000000    -0.176546   
N105     N      0.630330000000     0.346200000000     0.698260000000    -0.175506   
N106     N      0.685370000000     0.403590000000     0.748000000000    -0.175819   
N107     N      0.579610000000     0.666530000000     0.601870000000    -0.176573   
N108     N      0.650130000000     0.596460000000     0.585470000000    -0.17649    
N109     N      0.869190000000     0.596900000000     0.535620000000    -0.176499   
N110     N      0.939360000000     0.667880000000     0.519410000000    -0.17653    
N111     N      0.684690000000     0.407590000000     0.491980000000    -0.175913   
N112     N      0.626850000000     0.349500000000     0.944840000000    -0.176057   
N113     N      0.078030000000     0.383420000000     0.770410000000    -0.176535   
N114     N      0.147950000000     0.454900000000     0.786430000000    -0.176441   
N115     N      0.077960000000     0.162920000000     0.722720000000    -0.17658    
N116     N      0.149240000000     0.093020000000     0.707670000000    -0.176718   
N117     N      0.888180000000     0.201540000000     0.815720000000    -0.176041   
N118     N      0.829880000000     0.146230000000     0.864220000000    -0.175589   
N119     N      0.833050000000     0.406540000000     0.629170000000    -0.176173   
N120     N      0.889690000000     0.347710000000     0.676640000000    -0.17569    
N121     N      0.150320000000     0.459290000000     0.546560000000    -0.176479   
N122     N      0.078660000000     0.389130000000     0.531530000000    -0.176491   
N123     N      0.076920000000     0.168480000000     0.484060000000    -0.176495   
N124     N      0.146420000000     0.097170000000     0.968200000000    -0.176638   
N125     N      0.890660000000     0.204450000000     0.578340000000    -0.175641   
N126     N      0.834480000000     0.145770000000     0.625920000000    -0.176188   
N127     N      0.828190000000     0.405880000000     0.890660000000    -0.175604   
N128     N      0.886820000000     0.350370000000     0.939150000000    -0.176107   
O1       O      0.037600000000     0.336940000000     0.990910000000    -0.511588   
O2       O      0.020660000000     0.331720000000     0.049610000000    -0.492271   
O3       O      0.946720000000     0.292480000000     0.450790000000    -0.493771   
O4       O      0.020670000000     0.227820000000     0.466570000000    -0.490771   
O5       O      0.951640000000     0.261520000000     0.067030000000    -0.493832   
O6       O      0.036490000000     0.219450000000     0.025380000000    -0.509871   
O7       O      0.920970000000     0.333790000000     0.997960000000    -0.508866   
O8       O      0.919550000000     0.225770000000     0.019130000000    -0.509027   
O9       O      0.037100000000     0.332060000000     0.229080000000    -0.509869   
O10      O      0.021450000000     0.324350000000     0.287830000000    -0.490858   
O11      O      0.949960000000     0.289960000000     0.187710000000    -0.49482    
O12      O      0.020020000000     0.220410000000     0.204710000000    -0.492263   
O13      O      0.948870000000     0.258700000000     0.303990000000    -0.493111   
O14      O      0.037580000000     0.214730000000     0.263430000000    -0.511537   
O15      O      0.920390000000     0.326840000000     0.235670000000    -0.508771   
O16      O      0.920440000000     0.218750000000     0.256680000000    -0.509032   
O17      O      0.818600000000     0.555920000000     0.077160000000    -0.512254   
O18      O      0.810610000000     0.539460000000     0.018470000000    -0.492644   
O19      O      0.775650000000     0.467160000000     0.118390000000    -0.494051   
O20      O      0.708690000000     0.539240000000     0.102570000000    -0.492102   
O21      O      0.742710000000     0.467940000000     0.002600000000    -0.49498    
O22      O      0.700790000000     0.556110000000     0.043900000000    -0.510734   
O23      O      0.813910000000     0.439280000000     0.070460000000    -0.510164   
O24      O      0.704830000000     0.439440000000     0.050670000000    -0.510321   
O25      O      0.815370000000     0.551530000000     0.336720000000    -0.508809   
O26      O      0.807090000000     0.536690000000     0.277860000000    -0.489995   
O27      O      0.771670000000     0.466920000000     0.378290000000    -0.491937   
O28      O      0.701970000000     0.535550000000     0.359770000000    -0.491531   
O29      O      0.742760000000     0.463780000000     0.261020000000    -0.491902   
O30      O      0.697290000000     0.552730000000     0.301010000000    -0.510161   
O31      O      0.807570000000     0.434580000000     0.331000000000    -0.507693   
O32      O      0.701280000000     0.435800000000     0.307450000000    -0.507002   
O33      O      0.702540000000     0.996040000000     0.210620000000    -0.511142   
O34      O      0.710040000000     0.012770000000     0.151950000000    -0.491759   
O35      O      0.743700000000     0.082960000000     0.252290000000    -0.495107   
O36      O      0.814120000000     0.013060000000     0.235680000000    -0.492934   
O37      O      0.776120000000     0.085930000000     0.136680000000    -0.494664   
O38      O      0.818670000000     0.995340000000     0.177040000000    -0.511971   
O39      O      0.707550000000     0.113080000000     0.203750000000    -0.510366   
O40      O      0.816720000000     0.112230000000     0.184500000000    -0.510249   
O41      O      0.698890000000     0.999290000000     0.453100000000    -0.51048    
O42      O      0.703250000000     0.016230000000     0.394300000000    -0.49129    
O43      O      0.743540000000     0.087310000000     0.993430000000    -0.492093   
O44      O      0.810330000000     0.015800000000     0.975950000000    -0.490223   
O45      O      0.772080000000     0.086210000000     0.376400000000    -0.493295   
O46      O      0.815090000000     0.999400000000     0.417160000000    -0.509053   
O47      O      0.703610000000     0.116470000000     0.446320000000    -0.507405   
O48      O      0.810540000000     0.116620000000     0.423730000000    -0.507988   
O49      O      0.482330000000     0.217600000000     0.107670000000    -0.509341   
O50      O      0.500540000000     0.221250000000     0.166330000000    -0.490303   
O51      O      0.570640000000     0.261640000000     0.067230000000    -0.491767   
O52      O      0.499430000000     0.328830000000     0.085320000000    -0.490076   
O53      O      0.569930000000     0.289130000000     0.184880000000    -0.490864   
O54      O      0.484500000000     0.334090000000     0.144270000000    -0.509011   
O55      O      0.600270000000     0.221870000000     0.114190000000    -0.507042   
O56      O      0.601130000000     0.327900000000     0.138220000000    -0.506831   
O57      O      0.476910000000     0.216950000000     0.359860000000    -0.512125   
O58      O      0.495630000000     0.223100000000     0.418370000000    -0.492661   
O59      O      0.567170000000     0.258440000000     0.318720000000    -0.495102   
O60      O      0.494480000000     0.325940000000     0.334140000000    -0.492158   
O61      O      0.566370000000     0.291610000000     0.434270000000    -0.494209   
O62      O      0.479000000000     0.333710000000     0.392910000000    -0.511606   
O63      O      0.594300000000     0.219670000000     0.367100000000    -0.510862   
O64      O      0.595260000000     0.329040000000     0.386040000000    -0.510467   
O65      O      0.202980000000     0.499820000000     0.087230000000    -0.509067   
O66      O      0.208850000000     0.516080000000     0.028410000000    -0.489626   
O67      O      0.245850000000     0.585250000000     0.128460000000    -0.49256    
O68      O      0.316230000000     0.516520000000     0.109900000000    -0.491203   
O69      O      0.274220000000     0.588490000000     0.011360000000    -0.492201   
O70      O      0.319100000000     0.499320000000     0.051150000000    -0.510189   
O71      O      0.209330000000     0.617370000000     0.080890000000    -0.507705   
O72      O      0.315970000000     0.616320000000     0.058030000000    -0.507258   
O73      O      0.315630000000     0.495850000000     0.294190000000    -0.51098    
O74      O      0.309560000000     0.512800000000     0.352870000000    -0.491802   
O75      O      0.274250000000     0.584190000000     0.253100000000    -0.495621   
O76      O      0.205430000000     0.513200000000     0.269130000000    -0.492444   
O77      O      0.241820000000     0.584790000000     0.368750000000    -0.494339   
O78      O      0.199550000000     0.495570000000     0.327780000000    -0.512158   
O79      O      0.312440000000     0.612640000000     0.301330000000    -0.510275   
O80      O      0.203220000000     0.612770000000     0.320530000000    -0.510189   
O81      O      0.539190000000     0.716990000000     0.143550000000    -0.512012   
O82      O      0.522150000000     0.724940000000     0.084880000000    -0.492595   
O83      O      0.451680000000     0.758920000000     0.185080000000    -0.494276   
O84      O      0.522820000000     0.826980000000     0.169250000000    -0.492554   
O85      O      0.449630000000     0.792240000000     0.069500000000    -0.495208   
O86      O      0.539550000000     0.834340000000     0.110630000000    -0.511828   
O87      O      0.422370000000     0.721440000000     0.136880000000    -0.510869   
O88      O      0.422980000000     0.830800000000     0.117750000000    -0.51058    
O89      O      0.533730000000     0.716930000000     0.395080000000    -0.509113   
O90      O      0.517320000000     0.722430000000     0.336200000000    -0.490152   
O91      O      0.448150000000     0.761710000000     0.435800000000    -0.49078    
O92      O      0.518010000000     0.829200000000     0.417380000000    -0.490333   
O93      O      0.446340000000     0.789380000000     0.318110000000    -0.491686   
O94      O      0.534170000000     0.834110000000     0.358590000000    -0.509118   
O95      O      0.416530000000     0.723030000000     0.389090000000    -0.50703    
O96      O      0.417090000000     0.828980000000     0.364880000000    -0.50711    
O97      O      0.201090000000     0.052570000000     0.167030000000    -0.509136   
O98      O      0.207920000000     0.036430000000     0.225830000000    -0.490613   
O99      O      0.244720000000     0.966240000000     0.125980000000    -0.492837   
O100     O      0.312660000000     0.036590000000     0.143740000000    -0.491237   
O101     O      0.273760000000     0.964670000000     0.243150000000    -0.49178    
O102     O      0.319290000000     0.052170000000     0.202620000000    -0.510444   
O103     O      0.206700000000     0.935520000000     0.173120000000    -0.508019   
O104     O      0.313350000000     0.935610000000     0.196330000000    -0.507312   
O105     O      0.315360000000     0.055300000000     0.460270000000    -0.510703   
O106     O      0.305690000000     0.039870000000     0.401550000000    -0.491542   
O107     O      0.273480000000     0.968870000000     0.002140000000    -0.494021   
O108     O      0.203730000000     0.038820000000     0.985640000000    -0.493029   
O109     O      0.240510000000     0.966380000000     0.386350000000    -0.494023   
O110     O      0.197540000000     0.056740000000     0.427030000000    -0.51196    
O111     O      0.309120000000     0.938820000000     0.453800000000    -0.510062   
O112     O      0.200170000000     0.939850000000     0.433900000000    -0.509869   
O113     O      0.979500000000     0.719500000000     0.978040000000    -0.510409   
O114     O      0.997010000000     0.726140000000     0.036700000000    -0.491048   
O115     O      0.067130000000     0.761100000000     0.436780000000    -0.495288   
O116     O      0.996540000000     0.830680000000     0.453700000000    -0.491874   
O117     O      0.069220000000     0.792110000000     0.052960000000    -0.492963   
O118     O      0.980690000000     0.836330000000     0.012540000000    -0.51095    
O119     O      0.096980000000     0.723990000000     0.984940000000    -0.509148   
O120     O      0.097080000000     0.832240000000     0.005670000000    -0.508768   
O121     O      0.978910000000     0.714670000000     0.239830000000    -0.511681   
O122     O      0.997950000000     0.718600000000     0.298370000000    -0.492326   
O123     O      0.070110000000     0.758440000000     0.199680000000    -0.493765   
O124     O      0.996070000000     0.823460000000     0.215510000000    -0.490472   
O125     O      0.066260000000     0.789330000000     0.315930000000    -0.49386    
O126     O      0.981550000000     0.831400000000     0.274380000000    -0.509661   
O127     O      0.096510000000     0.717200000000     0.247060000000    -0.508896   
O128     O      0.098010000000     0.825170000000     0.268120000000    -0.50864    
O129     O      0.037600000000     0.336940000000     0.490910000000    -0.511334   
O130     O      0.020660000000     0.331720000000     0.549610000000    -0.492178   
O131     O      0.946720000000     0.292480000000     0.950790000000    -0.493877   
O132     O      0.020670000000     0.227820000000     0.966580000000    -0.490956   
O133     O      0.951640000000     0.261520000000     0.567030000000    -0.493781   
O134     O      0.036490000000     0.219450000000     0.525380000000    -0.50981    
O135     O      0.920970000000     0.333790000000     0.497960000000    -0.5087     
O136     O      0.919550000000     0.225770000000     0.519130000000    -0.509034   
O137     O      0.037100000000     0.332060000000     0.729080000000    -0.510012   
O138     O      0.021450000000     0.324350000000     0.787820000000    -0.491013   
O139     O      0.949960000000     0.289960000000     0.687710000000    -0.494832   
O140     O      0.020020000000     0.220410000000     0.704710000000    -0.492238   
O141     O      0.948870000000     0.258700000000     0.803990000000    -0.493134   
O142     O      0.037580000000     0.214730000000     0.763430000000    -0.51152    
O143     O      0.920390000000     0.326840000000     0.735670000000    -0.50878    
O144     O      0.920440000000     0.218750000000     0.756680000000    -0.509063   
O145     O      0.818600000000     0.555920000000     0.577170000000    -0.512029   
O146     O      0.810610000000     0.539460000000     0.518470000000    -0.492738   
O147     O      0.775650000000     0.467170000000     0.618390000000    -0.4939     
O148     O      0.708690000000     0.539230000000     0.602570000000    -0.492027   
O149     O      0.742710000000     0.467940000000     0.502600000000    -0.495173   
O150     O      0.700790000000     0.556110000000     0.543900000000    -0.510808   
O151     O      0.813910000000     0.439280000000     0.570460000000    -0.510164   
O152     O      0.704830000000     0.439450000000     0.550670000000    -0.510403   
O153     O      0.815370000000     0.551530000000     0.836720000000    -0.508914   
O154     O      0.807100000000     0.536690000000     0.777860000000    -0.489915   
O155     O      0.771670000000     0.466920000000     0.878290000000    -0.491962   
O156     O      0.701970000000     0.535560000000     0.859770000000    -0.491575   
O157     O      0.742760000000     0.463780000000     0.761020000000    -0.491902   
O158     O      0.697290000000     0.552730000000     0.801010000000    -0.510186   
O159     O      0.807570000000     0.434580000000     0.831000000000    -0.507583   
O160     O      0.701280000000     0.435800000000     0.807450000000    -0.507      
O161     O      0.702540000000     0.996040000000     0.710620000000    -0.511158   
O162     O      0.710030000000     0.012770000000     0.651950000000    -0.491753   
O163     O      0.743700000000     0.082960000000     0.752290000000    -0.495105   
O164     O      0.814120000000     0.013060000000     0.735680000000    -0.492971   
O165     O      0.776110000000     0.085930000000     0.636680000000    -0.494556   
O166     O      0.818670000000     0.995340000000     0.677040000000    -0.512004   
O167     O      0.707550000000     0.113080000000     0.703750000000    -0.510363   
O168     O      0.816720000000     0.112230000000     0.684500000000    -0.510222   
O169     O      0.698890000000     0.999280000000     0.953100000000    -0.510368   
O170     O      0.703250000000     0.016230000000     0.894290000000    -0.491057   
O171     O      0.743540000000     0.087310000000     0.493430000000    -0.49209    
O172     O      0.810330000000     0.015800000000     0.475950000000    -0.490308   
O173     O      0.772080000000     0.086210000000     0.876400000000    -0.493247   
O174     O      0.815090000000     0.999400000000     0.917150000000    -0.508791   
O175     O      0.703610000000     0.116470000000     0.946320000000    -0.507373   
O176     O      0.810540000000     0.116620000000     0.923730000000    -0.507951   
O177     O      0.482330000000     0.217600000000     0.607670000000    -0.509314   
O178     O      0.500540000000     0.221250000000     0.666330000000    -0.490288   
O179     O      0.570640000000     0.261640000000     0.567230000000    -0.491839   
O180     O      0.499440000000     0.328830000000     0.585320000000    -0.490052   
O181     O      0.569930000000     0.289130000000     0.684880000000    -0.490908   
O182     O      0.484500000000     0.334090000000     0.644270000000    -0.508934   
O183     O      0.600260000000     0.221870000000     0.614190000000    -0.507223   
O184     O      0.601130000000     0.327900000000     0.638220000000    -0.506923   
O185     O      0.476920000000     0.216950000000     0.859860000000    -0.512198   
O186     O      0.495630000000     0.223110000000     0.918370000000    -0.492719   
O187     O      0.567170000000     0.258440000000     0.818730000000    -0.495367   
O188     O      0.494480000000     0.325940000000     0.834140000000    -0.492194   
O189     O      0.566370000000     0.291610000000     0.934260000000    -0.49442    
O190     O      0.479000000000     0.333710000000     0.892910000000    -0.511656   
O191     O      0.594300000000     0.219670000000     0.867100000000    -0.510846   
O192     O      0.595260000000     0.329040000000     0.886040000000    -0.510538   
O193     O      0.202980000000     0.499820000000     0.587230000000    -0.509091   
O194     O      0.208850000000     0.516080000000     0.528410000000    -0.489711   
O195     O      0.245850000000     0.585250000000     0.628460000000    -0.492637   
O196     O      0.316230000000     0.516520000000     0.609900000000    -0.491163   
O197     O      0.274220000000     0.588490000000     0.511360000000    -0.492232   
O198     O      0.319100000000     0.499320000000     0.551150000000    -0.510182   
O199     O      0.209330000000     0.617370000000     0.580900000000    -0.50787    
O200     O      0.315970000000     0.616320000000     0.558030000000    -0.507232   
O201     O      0.315630000000     0.495850000000     0.794190000000    -0.510996   
O202     O      0.309560000000     0.512800000000     0.852870000000    -0.491826   
O203     O      0.274250000000     0.584190000000     0.753100000000    -0.495626   
O204     O      0.205430000000     0.513200000000     0.769130000000    -0.492458   
O205     O      0.241820000000     0.584790000000     0.868750000000    -0.49436    
O206     O      0.199550000000     0.495570000000     0.827780000000    -0.512182   
O207     O      0.312440000000     0.612640000000     0.801330000000    -0.510287   
O208     O      0.203220000000     0.612760000000     0.820530000000    -0.51028    
O209     O      0.539190000000     0.716980000000     0.643550000000    -0.511929   
O210     O      0.522150000000     0.724940000000     0.584880000000    -0.492593   
O211     O      0.451670000000     0.758930000000     0.685080000000    -0.494302   
O212     O      0.522820000000     0.826980000000     0.669250000000    -0.492709   
O213     O      0.449620000000     0.792240000000     0.569500000000    -0.495124   
O214     O      0.539550000000     0.834340000000     0.610630000000    -0.511712   
O215     O      0.422370000000     0.721440000000     0.636880000000    -0.510844   
O216     O      0.422980000000     0.830800000000     0.617750000000    -0.510576   
O217     O      0.533730000000     0.716940000000     0.895080000000    -0.509286   
O218     O      0.517310000000     0.722430000000     0.836210000000    -0.490397   
O219     O      0.448150000000     0.761710000000     0.935800000000    -0.490843   
O220     O      0.518010000000     0.829200000000     0.917380000000    -0.49042    
O221     O      0.446340000000     0.789380000000     0.818110000000    -0.491684   
O222     O      0.534170000000     0.834110000000     0.858590000000    -0.509215   
O223     O      0.416530000000     0.723030000000     0.889090000000    -0.506955   
O224     O      0.417090000000     0.828980000000     0.864880000000    -0.506973   
O225     O      0.201090000000     0.052570000000     0.667030000000    -0.509157   
O226     O      0.207920000000     0.036430000000     0.725830000000    -0.490625   
O227     O      0.244720000000     0.966240000000     0.625980000000    -0.492829   
O228     O      0.312660000000     0.036590000000     0.643740000000    -0.491292   
O229     O      0.273760000000     0.964670000000     0.743150000000    -0.491778   
O230     O      0.319290000000     0.052170000000     0.702620000000    -0.510483   
O231     O      0.206700000000     0.935520000000     0.673120000000    -0.508005   
O232     O      0.313350000000     0.935610000000     0.696330000000    -0.507308   
O233     O      0.315360000000     0.055300000000     0.960270000000    -0.510789   
O234     O      0.305690000000     0.039880000000     0.901550000000    -0.491593   
O235     O      0.273480000000     0.968870000000     0.502140000000    -0.494321   
O236     O      0.203730000000     0.038820000000     0.485640000000    -0.492994   
O237     O      0.240510000000     0.966380000000     0.886350000000    -0.494039   
O238     O      0.197540000000     0.056740000000     0.927030000000    -0.511924   
O239     O      0.309120000000     0.938820000000     0.953800000000    -0.510002   
O240     O      0.200170000000     0.939860000000     0.933900000000    -0.509987   
O241     O      0.979490000000     0.719510000000     0.478040000000    -0.510305   
O242     O      0.997010000000     0.726140000000     0.536700000000    -0.49105    
O243     O      0.067130000000     0.761100000000     0.936780000000    -0.495208   
O244     O      0.996540000000     0.830670000000     0.953700000000    -0.491805   
O245     O      0.069220000000     0.792110000000     0.552950000000    -0.493265   
O246     O      0.980690000000     0.836330000000     0.512540000000    -0.511197   
O247     O      0.096970000000     0.723980000000     0.484940000000    -0.509049   
O248     O      0.097080000000     0.832240000000     0.505670000000    -0.508961   
O249     O      0.978910000000     0.714670000000     0.739830000000    -0.511604   
O250     O      0.997950000000     0.718600000000     0.798370000000    -0.492225   
O251     O      0.070110000000     0.758450000000     0.699690000000    -0.49389    
O252     O      0.996060000000     0.823470000000     0.715510000000    -0.490515   
O253     O      0.066260000000     0.789340000000     0.815930000000    -0.493943   
O254     O      0.981560000000     0.831400000000     0.774380000000    -0.509826   
O255     O      0.096510000000     0.717190000000     0.747060000000    -0.508737   
O256     O      0.098010000000     0.825170000000     0.768120000000    -0.508745   


