data_structure

_audit_creation_method RASPA-1.0
_audit_creation_date 2023-5-23
_audit_author_name 'Poobodin Mano'

_cell_length_a    32.8985
_cell_length_b    26.8492
_cell_length_c    31.3495
_cell_angle_alpha 90.0011
_cell_angle_beta  89.9993
_cell_angle_gamma 90.0001
_cell_volume      27691

_symmetry_cell_setting          triclinic
_symmetry_space_group_name_Hall 'P 1'
_symmetry_space_group_name_H-M  'P 1'
_symmetry_Int_Tables_number     1

_symmetry_equiv_pos_as_xyz 'x,y,z'

loop_
_atom_site_label
_atom_site_type_symbol
_atom_site_fract_x
_atom_site_fract_y
_atom_site_fract_z
_atom_site_charge
C1       C      0.366750000000     0.061670000000     0.224260000000     0.411566   
C2       C      0.457620000000     0.080640000000     0.102660000000     0.409473   
C3       C      0.404690000000     0.196100000000     0.174940000000     0.407319   
C4       C      0.493500000000     0.069420000000     0.230890000000     0.409164   
C5       C      0.119620000000     0.998270000000     0.329420000000     0.40549    
C6       C      0.210200000000     0.990320000000     0.452240000000     0.404802   
C7       C      0.151220000000     0.869610000000     0.394600000000     0.407835   
C8       C      0.241040000000     0.990000000000     0.323050000000     0.409062   
C9       C      0.374350000000     0.040170000000     0.706400000000     0.412002   
C10      C      0.279660000000     0.062250000000     0.600220000000     0.414514   
C11      C      0.245350000000     0.065020000000     0.731320000000     0.414367   
C12      C      0.331980000000     0.184200000000     0.679680000000     0.410241   
C13      C      0.116710000000     0.006340000000     0.832240000000     0.412113   
C14      C      0.021920000000     0.013240000000     0.950550000000     0.410305   
C15      C      0.997450000000     0.988780000000     0.815590000000     0.407593   
C16      C      0.082890000000     0.882540000000     0.898420000000     0.410766   
C17      C      0.368550000000     0.503730000000     0.724980000000     0.411709   
C18      C      0.458260000000     0.484180000000     0.602680000000     0.409393   
C19      C      0.495250000000     0.495450000000     0.730310000000     0.409336   
C20      C      0.405590000000     0.368880000000     0.675240000000     0.407192   
C21      C      0.121290000000     0.567190000000     0.828610000000     0.407709   
C22      C      0.210720000000     0.575690000000     0.952030000000     0.407179   
C23      C      0.242810000000     0.576040000000     0.823410000000     0.411634   
C24      C      0.152070000000     0.696260000000     0.894130000000     0.408133   
C25      C      0.115550000000     0.559160000000     0.331630000000     0.410911   
C26      C      0.021570000000     0.552180000000     0.450360000000     0.408729   
C27      C      0.082270000000     0.683190000000     0.398180000000     0.410613   
C28      C      0.496340000000     0.576910000000     0.315750000000     0.409435   
C29      C      0.373150000000     0.525130000000     0.206800000000     0.412445   
C30      C      0.279420000000     0.502960000000     0.100070000000     0.413821   
C31      C      0.331120000000     0.380810000000     0.179570000000     0.410089   
C32      C      0.243970000000     0.499930000000     0.230660000000     0.414668   
C33      C      0.163440000000     0.575060000000     0.277260000000     0.0344812  
C34      C      0.164110000000     0.497120000000     0.312130000000     0.0342288  
C35      C      0.196560000000     0.481880000000     0.286220000000     0.0327502  
C36      C      0.195870000000     0.560180000000     0.251950000000     0.0339386  
C37      C      0.434210000000     0.597670000000     0.281410000000     0.0330041  
C38      C      0.472150000000     0.528180000000     0.258100000000     0.0328655  
C39      C      0.441510000000     0.516200000000     0.229130000000     0.0335875  
C40      C      0.402790000000     0.584500000000     0.253590000000     0.0333332  
C41      C      0.208540000000     0.521160000000     0.011700000000     0.0321597  
C42      C      0.264320000000     0.575470000000     0.002770000000     0.0320714  
C43      C      0.282230000000     0.556280000000     0.039660000000     0.033322   
C44      C      0.226400000000     0.502080000000     0.048660000000     0.0342118  
C45      C      0.450950000000     0.529370000000     0.538080000000     0.0332935  
C46      C      0.010870000000     0.483290000000     0.550520000000     0.0329896  
C47      C      0.027140000000     0.500870000000     0.512100000000     0.031297   
C48      C      0.467130000000     0.546800000000     0.499750000000     0.0315221  
C49      C      0.318810000000     0.493100000000     0.778330000000     0.0327178  
C50      C      0.323040000000     0.570130000000     0.742290000000     0.0325198  
C51      C      0.291420000000     0.588780000000     0.767770000000     0.0330908  
C52      C      0.287060000000     0.511230000000     0.802970000000     0.0334966  
C53      C      0.041620000000     0.559530000000     0.748130000000     0.0330747  
C54      C      0.043680000000     0.483400000000     0.785770000000     0.0328551  
C55      C      0.075100000000     0.501980000000     0.811310000000     0.0335872  
C56      C      0.073830000000     0.577380000000     0.772560000000     0.0338026  
C57      C      0.076100000000     0.794680000000     0.902420000000     0.0331195  
C58      C      0.141350000000     0.831190000000     0.904260000000     0.033883   
C59      C      0.159060000000     0.783940000000     0.901810000000     0.0329921  
C60      C      0.093790000000     0.747420000000     0.902050000000     0.0334716  
C61      C      0.374940000000     0.245040000000     0.710920000000     0.0343011  
C62      C      0.343130000000     0.261830000000     0.644990000000     0.0330328  
C63      C      0.362180000000     0.308390000000     0.643610000000     0.0331145  
C64      C      0.394970000000     0.290810000000     0.708860000000     0.0334922  
C65      C      0.404290000000     0.980640000000     0.752820000000     0.0319861  
C66      C      0.442570000000     0.049660000000     0.729080000000     0.0333496  
C67      C      0.473180000000     0.037750000000     0.758110000000     0.0339582  
C68      C      0.435680000000     0.967600000000     0.780730000000     0.0331591  
C69      C      0.197950000000     0.004420000000     0.753600000000     0.0372288  
C70      C      0.197510000000     0.083590000000     0.786370000000     0.0330107  
C71      C      0.165000000000     0.068510000000     0.812270000000     0.0341055  
C72      C      0.165440000000     0.989700000000     0.778860000000     0.0313059  
C73      C      0.158360000000     0.781890000000     0.401590000000     0.0330171  
C74      C      0.093060000000     0.818300000000     0.402730000000     0.033509   
C75      C      0.075420000000     0.771000000000     0.402880000000     0.0330492  
C76      C      0.140720000000     0.734590000000     0.403830000000     0.0337881  
C77      C      0.208180000000     0.044270000000     0.512320000000     0.032221   
C78      C      0.264220000000     0.990590000000     0.502490000000     0.0295733  
C79      C      0.282310000000     0.009560000000     0.539380000000     0.0363632  
C80      C      0.226210000000     0.063130000000     0.549290000000     0.0344723  
C81      C      0.361350000000     0.256690000000     0.143330000000     0.0331191  
C82      C      0.394130000000     0.274160000000     0.208610000000     0.0335557  
C83      C      0.374100000000     0.319920000000     0.210720000000     0.0342274  
C84      C      0.342290000000     0.303240000000     0.144770000000     0.0329668  
C85      C      0.027100000000     0.064260000000     0.012510000000     0.0311771  
C86      C      0.467200000000     0.018300000000     0.999650000000     0.0335583  
C87      C      0.450780000000     0.035570000000     0.037930000000     0.0324553  
C88      C      0.010580000000     0.081680000000     0.050880000000     0.0329587  
C89      C      0.321560000000     0.995180000000     0.242200000000     0.0316435  
C90      C      0.316190000000     0.073110000000     0.276630000000     0.0328785  
C91      C      0.284450000000     0.055130000000     0.301360000000     0.0335322  
C92      C      0.289940000000     0.976720000000     0.267780000000     0.032126   
C93      C      0.039530000000     0.005220000000     0.249350000000     0.0363128  
C94      C      0.041910000000     0.081770000000     0.286340000000     0.0332219  
C95      C      0.073350000000     0.063350000000     0.311940000000     0.0333339  
C96      C      0.071750000000     0.987520000000     0.273840000000     0.0306682  
C97      C      0.866750000000     0.061670000000     0.224250000000     0.411584   
C98      C      0.957620000000     0.080650000000     0.102660000000     0.409799   
C99      C      0.904690000000     0.196110000000     0.174940000000     0.407103   
C100     C      0.993500000000     0.069420000000     0.230890000000     0.409266   
C101     C      0.619620000000     0.998270000000     0.329420000000     0.4053     
C102     C      0.710200000000     0.990320000000     0.452240000000     0.404882   
C103     C      0.651220000000     0.869610000000     0.394600000000     0.408003   
C104     C      0.741040000000     0.990000000000     0.323050000000     0.409079   
C105     C      0.874350000000     0.040160000000     0.706400000000     0.411966   
C106     C      0.779660000000     0.062250000000     0.600220000000     0.414473   
C107     C      0.745350000000     0.065020000000     0.731320000000     0.414276   
C108     C      0.831980000000     0.184200000000     0.679680000000     0.410241   
C109     C      0.616710000000     0.006340000000     0.832240000000     0.412192   
C110     C      0.521920000000     0.013240000000     0.950560000000     0.410182   
C111     C      0.497440000000     0.988790000000     0.815600000000     0.40769    
C112     C      0.582890000000     0.882550000000     0.898420000000     0.410732   
C113     C      0.868550000000     0.503730000000     0.724980000000     0.411663   
C114     C      0.958260000000     0.484180000000     0.602680000000     0.409433   
C115     C      0.995250000000     0.495450000000     0.730310000000     0.409607   
C116     C      0.905590000000     0.368880000000     0.675240000000     0.407381   
C117     C      0.621290000000     0.567200000000     0.828610000000     0.407689   
C118     C      0.710730000000     0.575700000000     0.952030000000     0.407527   
C119     C      0.742810000000     0.576050000000     0.823410000000     0.411635   
C120     C      0.652070000000     0.696270000000     0.894130000000     0.408137   
C121     C      0.615550000000     0.559160000000     0.331630000000     0.411183   
C122     C      0.521570000000     0.552180000000     0.450360000000     0.408826   
C123     C      0.582270000000     0.683180000000     0.398180000000     0.410905   
C124     C      0.996350000000     0.576920000000     0.315740000000     0.409341   
C125     C      0.873150000000     0.525140000000     0.206800000000     0.412362   
C126     C      0.779420000000     0.502960000000     0.100060000000     0.413872   
C127     C      0.831120000000     0.380810000000     0.179570000000     0.410322   
C128     C      0.743970000000     0.499930000000     0.230660000000     0.414791   
C129     C      0.663430000000     0.575050000000     0.277250000000     0.0344751  
C130     C      0.664120000000     0.497120000000     0.312140000000     0.0341784  
C131     C      0.696560000000     0.481880000000     0.286220000000     0.0327745  
C132     C      0.695860000000     0.560170000000     0.251940000000     0.0339856  
C133     C      0.934210000000     0.597670000000     0.281410000000     0.0330259  
C134     C      0.972160000000     0.528190000000     0.258090000000     0.032864   
C135     C      0.941510000000     0.516210000000     0.229130000000     0.0336129  
C136     C      0.902780000000     0.584510000000     0.253590000000     0.0332898  
C137     C      0.708540000000     0.521170000000     0.011700000000     0.0322179  
C138     C      0.764320000000     0.575480000000     0.002770000000     0.0320319  
C139     C      0.782230000000     0.556280000000     0.039660000000     0.0333647  
C140     C      0.726400000000     0.502080000000     0.048660000000     0.0342064  
C141     C      0.950950000000     0.529370000000     0.538080000000     0.0333199  
C142     C      0.510870000000     0.483290000000     0.550520000000     0.0331383  
C143     C      0.527140000000     0.500870000000     0.512100000000     0.0312688  
C144     C      0.967130000000     0.546790000000     0.499740000000     0.0316193  
C145     C      0.818810000000     0.493100000000     0.778330000000     0.032723   
C146     C      0.823040000000     0.570130000000     0.742290000000     0.0325236  
C147     C      0.791420000000     0.588780000000     0.767770000000     0.0330831  
C148     C      0.787060000000     0.511230000000     0.802970000000     0.0334892  
C149     C      0.541620000000     0.559530000000     0.748130000000     0.033075   
C150     C      0.543690000000     0.483400000000     0.785770000000     0.0327907  
C151     C      0.575100000000     0.501990000000     0.811310000000     0.0336671  
C152     C      0.573830000000     0.577380000000     0.772560000000     0.0338053  
C153     C      0.576100000000     0.794680000000     0.902420000000     0.033042   
C154     C      0.641350000000     0.831190000000     0.904260000000     0.03387    
C155     C      0.659060000000     0.783940000000     0.901800000000     0.0330135  
C156     C      0.593800000000     0.747420000000     0.902050000000     0.0335978  
C157     C      0.874940000000     0.245040000000     0.710910000000     0.0343453  
C158     C      0.843130000000     0.261830000000     0.644990000000     0.0330326  
C159     C      0.862180000000     0.308390000000     0.643610000000     0.03312    
C160     C      0.894970000000     0.290800000000     0.708850000000     0.0334981  
C161     C      0.904290000000     0.980640000000     0.752820000000     0.032058   
C162     C      0.942570000000     0.049640000000     0.729070000000     0.0334529  
C163     C      0.973190000000     0.037740000000     0.758100000000     0.0338712  
C164     C      0.935670000000     0.967590000000     0.780730000000     0.0330659  
C165     C      0.697940000000     0.004430000000     0.753590000000     0.037293   
C166     C      0.697510000000     0.083590000000     0.786370000000     0.0329925  
C167     C      0.665010000000     0.068500000000     0.812270000000     0.0341354  
C168     C      0.665430000000     0.989700000000     0.778850000000     0.0312511  
C169     C      0.658360000000     0.781890000000     0.401590000000     0.0330274  
C170     C      0.593060000000     0.818300000000     0.402730000000     0.033518   
C171     C      0.575420000000     0.771000000000     0.402880000000     0.0330628  
C172     C      0.640720000000     0.734590000000     0.403830000000     0.0337864  
C173     C      0.708190000000     0.044270000000     0.512310000000     0.0323022  
C174     C      0.764220000000     0.990590000000     0.502490000000     0.0295994  
C175     C      0.782310000000     0.009550000000     0.539380000000     0.0363173  
C176     C      0.726210000000     0.063120000000     0.549290000000     0.0344611  
C177     C      0.861350000000     0.256690000000     0.143330000000     0.0331925  
C178     C      0.894130000000     0.274160000000     0.208600000000     0.0336181  
C179     C      0.874110000000     0.319920000000     0.210720000000     0.0341555  
C180     C      0.842280000000     0.303240000000     0.144770000000     0.0329251  
C181     C      0.527100000000     0.064260000000     0.012510000000     0.0311794  
C182     C      0.967200000000     0.018310000000     0.999640000000     0.0336755  
C183     C      0.950780000000     0.035580000000     0.037920000000     0.0324126  
C184     C      0.510580000000     0.081680000000     0.050880000000     0.0330359  
C185     C      0.821560000000     0.995180000000     0.242200000000     0.031633   
C186     C      0.816190000000     0.073110000000     0.276620000000     0.032931   
C187     C      0.784450000000     0.055130000000     0.301360000000     0.0334958  
C188     C      0.789940000000     0.976720000000     0.267780000000     0.0321629  
C189     C      0.539530000000     0.005220000000     0.249350000000     0.0363787  
C190     C      0.541910000000     0.081770000000     0.286340000000     0.0332139  
C191     C      0.573350000000     0.063350000000     0.311950000000     0.0333262  
C192     C      0.571750000000     0.987520000000     0.273840000000     0.0306437  
H1       H      0.151420000000     0.612260000000     0.272420000000     0.0457355  
H2       H      0.152330000000     0.471210000000     0.335610000000     0.0450624  
H3       H      0.208870000000     0.444760000000     0.290600000000     0.0433834  
H4       H      0.207330000000     0.586540000000     0.228660000000     0.0463289  
H5       H      0.430110000000     0.630060000000     0.301630000000     0.0452799  
H6       H      0.498940000000     0.504650000000     0.259110000000     0.0441316  
H7       H      0.445550000000     0.483420000000     0.209360000000     0.0442685  
H8       H      0.375490000000     0.607150000000     0.253330000000     0.0445344  
H9       H      0.179480000000     0.506090000000     0.001700000000     0.0456289  
H10      H      0.280450000000     0.604380000000     0.985530000000     0.0450347  
H11      H      0.311280000000     0.571390000000     0.049670000000     0.0436053  
H12      H      0.210240000000     0.473240000000     0.065950000000     0.0449037  
H13      H      0.420800000000     0.541820000000     0.547140000000     0.0455095  
H14      H      0.029280000000     0.458450000000     0.569770000000     0.0436786  
H15      H      0.057400000000     0.488840000000     0.503050000000     0.0440296  
H16      H      0.448710000000     0.571900000000     0.480750000000     0.0446894  
H17      H      0.328540000000     0.455030000000     0.783840000000     0.045575   
H18      H      0.336610000000     0.594430000000     0.718630000000     0.0439062  
H19      H      0.281410000000     0.626820000000     0.762830000000     0.0438625  
H20      H      0.273860000000     0.486350000000     0.826460000000     0.0458046  
H21      H      0.029230000000     0.583670000000     0.723620000000     0.044258   
H22      H      0.032630000000     0.446020000000     0.791890000000     0.0450567  
H23      H      0.087460000000     0.478190000000     0.836080000000     0.0452514  
H24      H      0.084820000000     0.614710000000     0.766110000000     0.0448889  
H25      H      0.043200000000     0.797340000000     0.901960000000     0.0439371  
H26      H      0.161280000000     0.863360000000     0.904850000000     0.0443718  
H27      H      0.191950000000     0.781280000000     0.901040000000     0.0439141  
H28      H      0.073810000000     0.715310000000     0.901090000000     0.0446207  
H29      H      0.380980000000     0.221150000000     0.738080000000     0.0449172  
H30      H      0.323140000000     0.251600000000     0.618910000000     0.0441605  
H31      H      0.356030000000     0.332520000000     0.616630000000     0.0436279  
H32      H      0.415120000000     0.300750000000     0.734880000000     0.0467305  
H33      H      0.377180000000     0.957670000000     0.752250000000     0.0446066  
H34      H      0.446440000000     0.082680000000     0.709570000000     0.0444444  
H35      H      0.999780000000     0.061580000000     0.759430000000     0.0440545  
H36      H      0.431730000000     0.934970000000     0.800690000000     0.0452257  
H37      H      0.209900000000     0.977640000000     0.730930000000     0.0447779  
H38      H      0.209370000000     0.121010000000     0.790130000000     0.0433956  
H39      H      0.152730000000     0.094830000000     0.835120000000     0.0450807  
H40      H      0.153860000000     0.952190000000     0.774630000000     0.0463379  
H41      H      0.191240000000     0.784610000000     0.400550000000     0.0439472  
H42      H      0.073040000000     0.850390000000     0.402210000000     0.0444885  
H43      H      0.042520000000     0.768290000000     0.402700000000     0.0438514  
H44      H      0.160690000000     0.702450000000     0.403970000000     0.0444637  
H45      H      0.178950000000     0.059170000000     0.502690000000     0.0457474  
H46      H      0.280400000000     0.962020000000     0.484900000000     0.0452126  
H47      H      0.311520000000     0.994620000000     0.549030000000     0.0420309  
H48      H      0.210000000000     0.091630000000     0.566940000000     0.0448505  
H49      H      0.355200000000     0.232600000000     0.116320000000     0.043636   
H50      H      0.414270000000     0.264170000000     0.234620000000     0.0467766  
H51      H      0.380150000000     0.343760000000     0.237920000000     0.0448667  
H52      H      0.322290000000     0.313510000000     0.118710000000     0.0441652  
H53      H      0.057400000000     0.076370000000     0.003690000000     0.0439498  
H54      H      0.448920000000     0.993250000000     0.980460000000     0.043455   
H55      H      0.420580000000     0.023050000000     0.046750000000     0.045795   
H56      H      0.028850000000     0.106480000000     0.070310000000     0.0436782  
H57      H      0.335610000000     0.970450000000     0.219180000000     0.0437198  
H58      H      0.325450000000     0.111480000000     0.281440000000     0.0455789  
H59      H      0.270780000000     0.080430000000     0.324220000000     0.0458634  
H60      H      0.280400000000     0.938380000000     0.263550000000     0.0440519  
H61      H      0.027010000000     0.980840000000     0.225090000000     0.0426615  
H62      H      0.030990000000     0.119270000000     0.292170000000     0.0449837  
H63      H      0.085860000000     0.087380000000     0.336450000000     0.0453524  
H64      H      0.082620000000     0.950060000000     0.267670000000     0.0455218  
H65      H      0.651410000000     0.612250000000     0.272420000000     0.0457506  
H66      H      0.652330000000     0.471220000000     0.335610000000     0.0450889  
H67      H      0.708870000000     0.444770000000     0.290600000000     0.0433774  
H68      H      0.707330000000     0.586540000000     0.228650000000     0.0463193  
H69      H      0.930110000000     0.630060000000     0.301630000000     0.0452895  
H70      H      0.998950000000     0.504660000000     0.259100000000     0.0441602  
H71      H      0.945560000000     0.483430000000     0.209360000000     0.0442635  
H72      H      0.875490000000     0.607150000000     0.253330000000     0.0445436  
H73      H      0.679490000000     0.506090000000     0.001700000000     0.0456149  
H74      H      0.780450000000     0.604380000000     0.985530000000     0.0450398  
H75      H      0.811280000000     0.571400000000     0.049670000000     0.043592   
H76      H      0.710240000000     0.473240000000     0.065950000000     0.044911   
H77      H      0.920800000000     0.541820000000     0.547130000000     0.0455063  
H78      H      0.529270000000     0.458440000000     0.569770000000     0.0436761  
H79      H      0.557400000000     0.488840000000     0.503050000000     0.0440479  
H80      H      0.948710000000     0.571890000000     0.480740000000     0.0446872  
H81      H      0.828540000000     0.455030000000     0.783840000000     0.0455758  
H82      H      0.836610000000     0.594430000000     0.718630000000     0.0439094  
H83      H      0.781410000000     0.626820000000     0.762830000000     0.0438699  
H84      H      0.773870000000     0.486350000000     0.826450000000     0.0458022  
H85      H      0.529230000000     0.583670000000     0.723620000000     0.0442918  
H86      H      0.532640000000     0.446030000000     0.791890000000     0.0451075  
H87      H      0.587460000000     0.478200000000     0.836080000000     0.045244   
H88      H      0.584820000000     0.614710000000     0.766110000000     0.0448991  
H89      H      0.543200000000     0.797340000000     0.901960000000     0.0439818  
H90      H      0.661280000000     0.863360000000     0.904840000000     0.0443806  
H91      H      0.691950000000     0.781280000000     0.901040000000     0.0439093  
H92      H      0.573810000000     0.715310000000     0.901090000000     0.0446013  
H93      H      0.880980000000     0.221150000000     0.738080000000     0.044908   
H94      H      0.823140000000     0.251600000000     0.618910000000     0.0441645  
H95      H      0.856030000000     0.332520000000     0.616630000000     0.0436294  
H96      H      0.915130000000     0.300750000000     0.734870000000     0.046743   
H97      H      0.877180000000     0.957670000000     0.752260000000     0.0445915  
H98      H      0.946440000000     0.082670000000     0.709560000000     0.0444263  
H99      H      0.499770000000     0.061590000000     0.759440000000     0.0440116  
H100     H      0.931730000000     0.934970000000     0.800690000000     0.045268   
H101     H      0.709890000000     0.977640000000     0.730910000000     0.0447687  
H102     H      0.709380000000     0.121010000000     0.790130000000     0.0434106  
H103     H      0.652740000000     0.094820000000     0.835120000000     0.0450836  
H104     H      0.653850000000     0.952200000000     0.774620000000     0.0463636  
H105     H      0.691240000000     0.784610000000     0.400540000000     0.0439528  
H106     H      0.573040000000     0.850390000000     0.402210000000     0.0444965  
H107     H      0.542520000000     0.768290000000     0.402700000000     0.0438685  
H108     H      0.660690000000     0.702450000000     0.403970000000     0.0444661  
H109     H      0.678950000000     0.059170000000     0.502680000000     0.0457386  
H110     H      0.780400000000     0.962020000000     0.484900000000     0.0452088  
H111     H      0.811520000000     0.994610000000     0.549030000000     0.0420508  
H112     H      0.710000000000     0.091630000000     0.566940000000     0.0448655  
H113     H      0.855200000000     0.232600000000     0.116320000000     0.0436223  
H114     H      0.914280000000     0.264170000000     0.234610000000     0.0467739  
H115     H      0.880150000000     0.343770000000     0.237910000000     0.0448977  
H116     H      0.822290000000     0.313510000000     0.118710000000     0.0441739  
H117     H      0.557400000000     0.076370000000     0.003690000000     0.0439607  
H118     H      0.948920000000     0.993260000000     0.980450000000     0.0434536  
H119     H      0.920580000000     0.023060000000     0.046750000000     0.0458147  
H120     H      0.528850000000     0.106480000000     0.070310000000     0.0436952  
H121     H      0.835610000000     0.970450000000     0.219170000000     0.0437312  
H122     H      0.825450000000     0.111480000000     0.281430000000     0.0455714  
H123     H      0.770790000000     0.080430000000     0.324220000000     0.0458711  
H124     H      0.780410000000     0.938380000000     0.263540000000     0.0440344  
H125     H      0.527010000000     0.980840000000     0.225090000000     0.042676   
H126     H      0.530990000000     0.119270000000     0.292170000000     0.0450176  
H127     H      0.585860000000     0.087380000000     0.336450000000     0.0453645  
H128     H      0.582620000000     0.950060000000     0.267670000000     0.0455389  
In1      In     0.430950000000     0.101310000000     0.182100000000     2.42426    
In2      In     0.181060000000     0.960630000000     0.375960000000     2.44068    
In3      In     0.307240000000     0.088270000000     0.678220000000     2.41603    
In4      In     0.053090000000     0.973480000000     0.877810000000     2.4101     
In5      In     0.432180000000     0.463570000000     0.682290000000     2.42576    
In6      In     0.182220000000     0.605370000000     0.875540000000     2.44505    
In7      In     0.052320000000     0.592290000000     0.377600000000     2.41337    
In8      In     0.306370000000     0.476740000000     0.178210000000     2.41733    
In9      In     0.930950000000     0.101320000000     0.182100000000     2.42427    
In10     In     0.681060000000     0.960630000000     0.375960000000     2.44058    
In11     In     0.807250000000     0.088270000000     0.678220000000     2.41572    
In12     In     0.553090000000     0.973480000000     0.877810000000     2.41021    
In13     In     0.932180000000     0.463570000000     0.682290000000     2.42594    
In14     In     0.682220000000     0.605370000000     0.875540000000     2.44508    
In15     In     0.552320000000     0.592290000000     0.377600000000     2.4136     
In16     In     0.806370000000     0.476740000000     0.178210000000     2.41751    
N1       N      0.147610000000     0.543620000000     0.307290000000    -0.174305   
N2       N      0.212280000000     0.513620000000     0.256290000000    -0.176848   
N3       N      0.467870000000     0.568040000000     0.284940000000    -0.176243   
N4       N      0.406080000000     0.542870000000     0.228600000000    -0.177001   
N5       N      0.227530000000     0.557860000000     0.988910000000    -0.174855   
N6       N      0.263080000000     0.519890000000     0.062640000000    -0.17655    
N7       N      0.473100000000     0.498300000000     0.563700000000    -0.175518   
N8       N      0.005410000000     0.533130000000     0.487160000000    -0.177183   
N9       N      0.336830000000     0.522480000000     0.748120000000    -0.177182   
N10      N      0.273630000000     0.559100000000     0.798000000000    -0.176445   
N11      N      0.026800000000     0.512530000000     0.754610000000    -0.176368   
N12      N      0.090200000000     0.548790000000     0.804350000000    -0.174954   
N13      N      0.099960000000     0.836380000000     0.902700000000    -0.176364   
N14      N      0.135170000000     0.742310000000     0.899950000000    -0.175607   
N15      N      0.349390000000     0.230470000000     0.678790000000    -0.175484   
N16      N      0.388160000000     0.322600000000     0.675480000000    -0.174668   
N17      N      0.407350000000     0.022570000000     0.728170000000    -0.176212   
N18      N      0.469080000000     0.997600000000     0.784660000000    -0.176725   
N19      N      0.213770000000     0.051370000000     0.757130000000    -0.177242   
N20      N      0.148970000000     0.021680000000     0.808090000000    -0.17355    
N21      N      0.134410000000     0.823500000000     0.400290000000    -0.175605   
N22      N      0.099320000000     0.729340000000     0.402600000000    -0.176404   
N23      N      0.227220000000     0.008000000000     0.489080000000    -0.173606   
N24      N      0.263110000000     0.045520000000     0.562820000000    -0.17714    
N25      N      0.387320000000     0.242410000000     0.175200000000    -0.174598   
N26      N      0.348550000000     0.334540000000     0.178610000000    -0.175481   
N27      N      0.005540000000     0.032090000000     0.987330000000    -0.177438   
N28      N      0.472730000000     0.066590000000     0.063770000000    -0.175421   
N29      N      0.334840000000     0.043160000000     0.247250000000    -0.176627   
N30      N      0.271650000000     0.006880000000     0.297330000000    -0.175033   
N31      N      0.024900000000     0.052390000000     0.255430000000    -0.176804   
N32      N      0.088350000000     0.016430000000     0.305280000000    -0.173252   
N33      N      0.647600000000     0.543620000000     0.307290000000    -0.174367   
N34      N      0.712270000000     0.513620000000     0.256290000000    -0.176856   
N35      N      0.967880000000     0.568050000000     0.284930000000    -0.176208   
N36      N      0.906080000000     0.542880000000     0.228600000000    -0.176984   
N37      N      0.727530000000     0.557860000000     0.988910000000    -0.174931   
N38      N      0.763080000000     0.519890000000     0.062640000000    -0.176612   
N39      N      0.973090000000     0.498300000000     0.563700000000    -0.175481   
N40      N      0.505410000000     0.533130000000     0.487160000000    -0.177128   
N41      N      0.836830000000     0.522480000000     0.748120000000    -0.177176   
N42      N      0.773630000000     0.559100000000     0.798000000000    -0.176421   
N43      N      0.526800000000     0.512530000000     0.754610000000    -0.176264   
N44      N      0.590200000000     0.548790000000     0.804350000000    -0.174953   
N45      N      0.599960000000     0.836390000000     0.902700000000    -0.176324   
N46      N      0.635170000000     0.742310000000     0.899950000000    -0.175681   
N47      N      0.849390000000     0.230470000000     0.678790000000    -0.175499   
N48      N      0.888160000000     0.322600000000     0.675480000000    -0.174704   
N49      N      0.907350000000     0.022560000000     0.728160000000    -0.17626    
N50      N      0.969080000000     0.997590000000     0.784660000000    -0.176647   
N51      N      0.713770000000     0.051370000000     0.757130000000    -0.177238   
N52      N      0.648960000000     0.021680000000     0.808090000000    -0.173586   
N53      N      0.634410000000     0.823500000000     0.400290000000    -0.175633   
N54      N      0.599320000000     0.729340000000     0.402600000000    -0.176406   
N55      N      0.727220000000     0.008000000000     0.489080000000    -0.173647   
N56      N      0.763110000000     0.045520000000     0.562820000000    -0.177114   
N57      N      0.887320000000     0.242420000000     0.175190000000    -0.174596   
N58      N      0.848550000000     0.334540000000     0.178610000000    -0.175496   
N59      N      0.505540000000     0.032090000000     0.987330000000    -0.177398   
N60      N      0.972730000000     0.066600000000     0.063770000000    -0.175426   
N61      N      0.834840000000     0.043160000000     0.247250000000    -0.176612   
N62      N      0.771650000000     0.006880000000     0.297320000000    -0.175009   
N63      N      0.524900000000     0.052380000000     0.255430000000    -0.176745   
N64      N      0.588350000000     0.016430000000     0.305280000000    -0.173206   
O1       O      0.473650000000     0.041260000000     0.206330000000    -0.510223   
O2       O      0.481960000000     0.114320000000     0.230870000000    -0.485357   
O3       O      0.423830000000     0.065130000000     0.116780000000    -0.495825   
O4       O      0.384080000000     0.038300000000     0.194350000000    -0.481858   
O5       O      0.430550000000     0.182590000000     0.202490000000    -0.486039   
O6       O      0.381680000000     0.103850000000     0.231930000000    -0.51712    
O7       O      0.477220000000     0.108140000000     0.128200000000    -0.505605   
O8       O      0.393970000000     0.162280000000     0.149170000000    -0.499778   
O9       O      0.222820000000     0.018470000000     0.348680000000    -0.518693   
O10      O      0.228990000000     0.945180000000     0.323680000000    -0.485689   
O11      O      0.177000000000     0.006670000000     0.437300000000    -0.489999   
O12      O      0.132750000000     0.020040000000     0.362550000000    -0.482849   
O13      O      0.187590000000     0.875970000000     0.382440000000    -0.493343   
O14      O      0.137540000000     0.958010000000     0.320290000000    -0.508352   
O15      O      0.227380000000     0.957700000000     0.429500000000    -0.509895   
O16      O      0.130750000000     0.909160000000     0.398410000000    -0.509226   
O17      O      0.314130000000     0.165370000000     0.647780000000    -0.494362   
O18      O      0.334920000000     0.155520000000     0.711510000000    -0.494775   
O19      O      0.313000000000     0.046160000000     0.614930000000    -0.501209   
O20      O      0.376030000000     0.078010000000     0.682580000000    -0.497009   
O21      O      0.260690000000     0.108230000000     0.730900000000    -0.490434   
O22      O      0.338860000000     0.024260000000     0.713120000000    -0.491151   
O23      O      0.261660000000     0.093150000000     0.623970000000    -0.502347   
O24      O      0.261380000000     0.034940000000     0.705510000000    -0.507173   
O25      O      0.102990000000     0.922180000000     0.902960000000    -0.500453   
O26      O      0.046860000000     0.888920000000     0.885570000000    -0.489406   
O27      O      0.057250000000     0.023750000000     0.937510000000    -0.49284    
O28      O      0.100100000000     0.964340000000     0.826550000000    -0.506848   
O29      O      0.998360000000     0.949230000000     0.837430000000    -0.482811   
O30      O      0.100960000000     0.032720000000     0.861520000000    -0.477512   
O31      O      0.002970000000     0.983100000000     0.927100000000    -0.515252   
O32      O      0.024100000000     0.020460000000     0.825590000000    -0.501453   
O33      O      0.394830000000     0.402770000000     0.649570000000    -0.500179   
O34      O      0.431600000000     0.382270000000     0.702680000000    -0.486432   
O35      O      0.424590000000     0.499740000000     0.617090000000    -0.495953   
O36      O      0.385260000000     0.526530000000     0.694380000000    -0.482486   
O37      O      0.483490000000     0.450640000000     0.730700000000    -0.485821   
O38      O      0.383810000000     0.461850000000     0.733100000000    -0.51768    
O39      O      0.478030000000     0.456630000000     0.628030000000    -0.505687   
O40      O      0.475380000000     0.523520000000     0.705700000000    -0.510615   
O41      O      0.131610000000     0.656660000000     0.897500000000    -0.50987    
O42      O      0.188570000000     0.690040000000     0.882360000000    -0.493894   
O43      O      0.177770000000     0.559110000000     0.936660000000    -0.491519   
O44      O      0.134120000000     0.545780000000     0.862030000000    -0.484766   
O45      O      0.230220000000     0.620650000000     0.823270000000    -0.486595   
O46      O      0.139270000000     0.607390000000     0.819360000000    -0.509101   
O47      O      0.227930000000     0.608610000000     0.929620000000    -0.510192   
O48      O      0.224820000000     0.547800000000     0.849390000000    -0.521025   
O49      O      0.023200000000     0.545380000000     0.325450000000    -0.503197   
O50      O      0.997200000000     0.616380000000     0.337700000000    -0.48329    
O51      O      0.056850000000     0.541800000000     0.437100000000    -0.493078   
O52      O      0.100290000000     0.533190000000     0.361460000000    -0.477931   
O53      O      0.046120000000     0.676840000000     0.385710000000    -0.490006   
O54      O      0.098670000000     0.600950000000     0.325620000000    -0.506072   
O55      O      0.002460000000     0.582380000000     0.427110000000    -0.514472   
O56      O      0.102460000000     0.643550000000     0.402300000000    -0.5008     
O57      O      0.259640000000     0.529710000000     0.204360000000    -0.507911   
O58      O      0.259900000000     0.457040000000     0.231040000000    -0.490866   
O59      O      0.312520000000     0.519270000000     0.115210000000    -0.501242   
O60      O      0.337560000000     0.540510000000     0.213830000000    -0.492531   
O61      O      0.334150000000     0.409480000000     0.211400000000    -0.495305   
O62      O      0.375070000000     0.487670000000     0.182560000000    -0.497657   
O63      O      0.261390000000     0.471690000000     0.123450000000    -0.501764   
O64      O      0.313170000000     0.399640000000     0.147750000000    -0.4945     
O65      O      0.973650000000     0.041260000000     0.206330000000    -0.510138   
O66      O      0.981960000000     0.114320000000     0.230870000000    -0.485387   
O67      O      0.923830000000     0.065140000000     0.116780000000    -0.49589    
O68      O      0.884080000000     0.038300000000     0.194350000000    -0.481843   
O69      O      0.930550000000     0.182600000000     0.202490000000    -0.485997   
O70      O      0.881680000000     0.103850000000     0.231930000000    -0.517122   
O71      O      0.977210000000     0.108140000000     0.128200000000    -0.505841   
O72      O      0.893960000000     0.162280000000     0.149170000000    -0.499655   
O73      O      0.722830000000     0.018470000000     0.348680000000    -0.518659   
O74      O      0.728990000000     0.945180000000     0.323680000000    -0.485698   
O75      O      0.677010000000     0.006670000000     0.437300000000    -0.49009    
O76      O      0.632750000000     0.020040000000     0.362550000000    -0.482798   
O77      O      0.687590000000     0.875960000000     0.382440000000    -0.493268   
O78      O      0.637540000000     0.958000000000     0.320290000000    -0.50823    
O79      O      0.727380000000     0.957690000000     0.429500000000    -0.509853   
O80      O      0.630760000000     0.909160000000     0.398410000000    -0.509394   
O81      O      0.814130000000     0.165370000000     0.647780000000    -0.494352   
O82      O      0.834920000000     0.155520000000     0.711510000000    -0.494809   
O83      O      0.813000000000     0.046150000000     0.614930000000    -0.501122   
O84      O      0.876030000000     0.078000000000     0.682570000000    -0.497056   
O85      O      0.760690000000     0.108230000000     0.730900000000    -0.490313   
O86      O      0.838860000000     0.024260000000     0.713130000000    -0.491145   
O87      O      0.761660000000     0.093150000000     0.623960000000    -0.502177   
O88      O      0.761370000000     0.034940000000     0.705500000000    -0.506994   
O89      O      0.602990000000     0.922190000000     0.902960000000    -0.500514   
O90      O      0.546860000000     0.888920000000     0.885570000000    -0.489385   
O91      O      0.557250000000     0.023760000000     0.937510000000    -0.492708   
O92      O      0.600100000000     0.964340000000     0.826550000000    -0.506851   
O93      O      0.498360000000     0.949240000000     0.837430000000    -0.482973   
O94      O      0.600960000000     0.032720000000     0.861520000000    -0.477528   
O95      O      0.502970000000     0.983100000000     0.927100000000    -0.515146   
O96      O      0.524100000000     0.020460000000     0.825590000000    -0.501416   
O97      O      0.894830000000     0.402770000000     0.649570000000    -0.500246   
O98      O      0.931600000000     0.382260000000     0.702670000000    -0.486509   
O99      O      0.924590000000     0.499740000000     0.617090000000    -0.495956   
O100     O      0.885270000000     0.526530000000     0.694380000000    -0.482512   
O101     O      0.983490000000     0.450640000000     0.730700000000    -0.485881   
O102     O      0.883810000000     0.461850000000     0.733100000000    -0.517683   
O103     O      0.978030000000     0.456630000000     0.628030000000    -0.505678   
O104     O      0.975380000000     0.523510000000     0.705700000000    -0.510773   
O105     O      0.631610000000     0.656670000000     0.897500000000    -0.509813   
O106     O      0.688570000000     0.690050000000     0.882350000000    -0.493788   
O107     O      0.677780000000     0.559120000000     0.936660000000    -0.49167    
O108     O      0.634120000000     0.545790000000     0.862030000000    -0.484832   
O109     O      0.730220000000     0.620650000000     0.823270000000    -0.486657   
O110     O      0.639270000000     0.607400000000     0.819360000000    -0.509083   
O111     O      0.727930000000     0.608610000000     0.929620000000    -0.510377   
O112     O      0.724820000000     0.547800000000     0.849390000000    -0.520971   
O113     O      0.523200000000     0.545380000000     0.325460000000    -0.503233   
O114     O      0.497200000000     0.616370000000     0.337700000000    -0.483456   
O115     O      0.556850000000     0.541800000000     0.437100000000    -0.493118   
O116     O      0.600290000000     0.533190000000     0.361460000000    -0.477998   
O117     O      0.546130000000     0.676840000000     0.385710000000    -0.490184   
O118     O      0.598670000000     0.600940000000     0.325620000000    -0.506212   
O119     O      0.502460000000     0.582380000000     0.427120000000    -0.514443   
O120     O      0.602460000000     0.643550000000     0.402300000000    -0.500952   
O121     O      0.759640000000     0.529700000000     0.204360000000    -0.508064   
O122     O      0.759900000000     0.457040000000     0.231040000000    -0.4909     
O123     O      0.812520000000     0.519270000000     0.115210000000    -0.501245   
O124     O      0.837550000000     0.540510000000     0.213830000000    -0.492506   
O125     O      0.834150000000     0.409480000000     0.211390000000    -0.4955     
O126     O      0.875070000000     0.487680000000     0.182560000000    -0.497621   
O127     O      0.761390000000     0.471690000000     0.123440000000    -0.501698   
O128     O      0.813170000000     0.399640000000     0.147750000000    -0.494577   


