data_structure

_audit_creation_method RASPA-1.0
_audit_creation_date 2023-6-5
_audit_author_name 'Poobodin Mano'

_cell_length_a    31.2051
_cell_length_b    31.4215
_cell_length_c    34.3999
_cell_angle_alpha 89.5533
_cell_angle_beta  90.4468
_cell_angle_gamma 89.999
_cell_volume      33727.4

_symmetry_cell_setting          triclinic
_symmetry_space_group_name_Hall 'P 1'
_symmetry_space_group_name_H-M  'P 1'
_symmetry_Int_Tables_number     1

_symmetry_equiv_pos_as_xyz 'x,y,z'

loop_
_atom_site_label
_atom_site_type_symbol
_atom_site_fract_x
_atom_site_fract_y
_atom_site_fract_z
_atom_site_charge
C1       C      0.316160000000     0.413060000000     0.968870000000     0.414699   
C2       C      0.289580000000     0.289050000000     0.420060000000     0.41188    
C3       C      0.411070000000     0.319000000000     0.492680000000     0.418212   
C4       C      0.287540000000     0.291550000000     0.045390000000     0.418689   
C5       C      0.316920000000     0.588780000000     0.462720000000     0.412494   
C6       C      0.283640000000     0.713360000000     0.030030000000     0.416596   
C7       C      0.407660000000     0.688370000000     0.979840000000     0.412324   
C8       C      0.287890000000     0.708420000000     0.404490000000     0.411086   
C9       C      0.587600000000     0.321860000000     0.006270000000     0.415682   
C10      C      0.717540000000     0.294650000000     0.449660000000     0.421077   
C11      C      0.678080000000     0.417730000000     0.502390000000     0.417791   
C12      C      0.711660000000     0.299240000000     0.073110000000     0.42034    
C13      C      0.678000000000     0.593400000000     0.995930000000     0.429574   
C14      C      0.711770000000     0.715740000000     0.440640000000     0.423375   
C15      C      0.583570000000     0.695400000000     0.494070000000     0.417955   
C16      C      0.702240000000     0.718360000000     0.063160000000     0.411667   
C17      C      0.815340000000     0.093500000000     0.256750000000     0.411728   
C18      C      0.791600000000     0.217410000000     0.322510000000     0.414229   
C19      C      0.913010000000     0.180350000000     0.255870000000     0.413967   
C20      C      0.786780000000     0.221960000000     0.201760000000     0.41034    
C21      C      0.906260000000     0.817940000000     0.250400000000     0.425234   
C22      C      0.786140000000     0.792950000000     0.312780000000     0.421929   
C23      C      0.809120000000     0.917910000000     0.250500000000     0.421703   
C24      C      0.776460000000     0.797330000000     0.190230000000     0.418903   
C25      C      0.081490000000     0.815830000000     0.230850000000     0.420399   
C26      C      0.200420000000     0.789850000000     0.152660000000     0.424892   
C27      C      0.174970000000     0.909190000000     0.218950000000     0.410226   
C28      C      0.211120000000     0.784630000000     0.276190000000     0.416854   
C29      C      0.089770000000     0.177040000000     0.243370000000     0.421478   
C30      C      0.217180000000     0.209160000000     0.292510000000     0.416849   
C31      C      0.182000000000     0.084890000000     0.226970000000     0.416224   
C32      C      0.212230000000     0.210840000000     0.171240000000     0.416793   
C33      C      0.155710000000     0.977630000000     0.194960000000     0.0421475  
C34      C      0.205380000000     0.971360000000     0.246540000000     0.0467402  
C35      C      0.158300000000     0.021820000000     0.197130000000     0.0364686  
C36      C      0.208890000000     0.015880000000     0.248610000000     0.0265782  
C37      C      0.011420000000     0.797060000000     0.209700000000     0.0404259  
C38      C      0.021690000000     0.827190000000     0.271570000000     0.0478177  
C39      C      0.967260000000     0.796900000000     0.215520000000     0.0358834  
C40      C      0.977340000000     0.826820000000     0.277960000000     0.0313585  
C41      C      0.817070000000     0.025810000000     0.287470000000     0.040508   
C42      C      0.800550000000     0.030910000000     0.220690000000     0.0469984  
C43      C      0.814770000000     0.981690000000     0.285430000000     0.036433   
C44      C      0.797560000000     0.986330000000     0.218290000000     0.0301256  
C45      C      0.976290000000     0.182590000000     0.218240000000     0.0399407  
C46      C      0.981540000000     0.179250000000     0.286510000000     0.0469051  
C47      C      0.020780000000     0.182300000000     0.215700000000     0.0359053  
C48      C      0.026560000000     0.179150000000     0.284420000000     0.0315376  
C49      C      0.731930000000     0.788980000000     0.360410000000     0.04701    
C50      C      0.788040000000     0.738880000000     0.361430000000     0.0508817  
C51      C      0.714030000000     0.769470000000     0.392840000000     0.0390264  
C52      C      0.770630000000     0.719120000000     0.394570000000     0.0289418  
C53      C      0.753950000000     0.764420000000     0.090910000000     0.0411304  
C54      C      0.701680000000     0.732900000000     0.130830000000     0.0476857  
C55      C      0.771850000000     0.784370000000     0.123120000000     0.0374925  
C56      C      0.719170000000     0.753140000000     0.163670000000     0.026255   
C57      C      0.742140000000     0.217410000000     0.374540000000     0.0400549  
C58      C      0.789550000000     0.275070000000     0.366740000000     0.0469732  
C59      C      0.724460000000     0.236970000000     0.406890000000     0.0358155  
C60      C      0.772180000000     0.295120000000     0.399480000000     0.0324805  
C61      C      0.728740000000     0.230080000000     0.157370000000     0.0401971  
C62      C      0.788190000000     0.275940000000     0.153160000000     0.0470493  
C63      C      0.710320000000     0.250030000000     0.125030000000     0.034469   
C64      C      0.769920000000     0.296620000000     0.120650000000     0.0256242  
C65      C      0.696620000000     0.484660000000     0.529140000000     0.0423555  
C66      C      0.665490000000     0.481410000000     0.466630000000     0.0498804  
C67      C      0.697220000000     0.528920000000     0.526660000000     0.0386004  
C68      C      0.666170000000     0.525990000000     0.463610000000     0.0340688  
C69      C      0.231830000000     0.712540000000     0.357670000000     0.0393914  
C70      C      0.290790000000     0.758990000000     0.353050000000     0.0461377  
C71      C      0.213180000000     0.732080000000     0.325270000000     0.0349177  
C72      C      0.272740000000     0.778620000000     0.319920000000     0.0251541  
C73      C      0.247860000000     0.709510000000     0.090510000000     0.0401135  
C74      C      0.255350000000     0.775730000000     0.058770000000     0.0467248  
C75      C      0.226130000000     0.729190000000     0.120650000000     0.035984   
C76      C      0.233320000000     0.796050000000     0.088930000000     0.0317313  
C77      C      0.470670000000     0.687670000000     0.019010000000     0.0410424  
C78      C      0.474900000000     0.706370000000     0.452710000000     0.0486465  
C79      C      0.515140000000     0.690350000000     0.022210000000     0.035943   
C80      C      0.519600000000     0.710170000000     0.455750000000     0.0333655  
C81      C      0.234050000000     0.282320000000     0.372970000000     0.0414735  
C82      C      0.294000000000     0.236960000000     0.370750000000     0.0485166  
C83      C      0.216620000000     0.262010000000     0.340650000000     0.0388047  
C84      C      0.277280000000     0.216780000000     0.337630000000     0.0339646  
C85      C      0.259550000000     0.210790000000     0.117530000000     0.0414767  
C86      C      0.219680000000     0.272360000000     0.131410000000     0.0478334  
C87      C      0.277710000000     0.231450000000     0.085660000000     0.0360512  
C88      C      0.237720000000     0.293630000000     0.099390000000     0.02979    
C89      C      0.518540000000     0.335390000000     0.032080000000     0.0391855  
C90      C      0.525130000000     0.297580000000     0.473600000000     0.04501    
C91      C      0.474000000000     0.333830000000     0.028510000000     0.0349939  
C92      C      0.480360000000     0.295120000000     0.469970000000     0.0241882  
C93      C      0.349270000000     0.522230000000     0.449290000000     0.0384521  
C94      C      0.278380000000     0.524350000000     0.972090000000     0.0445854  
C95      C      0.348310000000     0.477900000000     0.450530000000     0.0339041  
C96      C      0.276700000000     0.479640000000     0.972770000000     0.0244119  
C97      C      0.316160000000     0.413060000000     0.468860000000     0.414788   
C98      C      0.289580000000     0.289050000000     0.920060000000     0.411913   
C99      C      0.411080000000     0.319000000000     0.992690000000     0.41755    
C100     C      0.287540000000     0.291550000000     0.545390000000     0.418712   
C101     C      0.316920000000     0.588780000000     0.962730000000     0.412405   
C102     C      0.283640000000     0.713360000000     0.530020000000     0.416744   
C103     C      0.407660000000     0.688370000000     0.479840000000     0.413438   
C104     C      0.287890000000     0.708420000000     0.904500000000     0.410732   
C105     C      0.587590000000     0.321860000000     0.506270000000     0.41473    
C106     C      0.717550000000     0.294660000000     0.949660000000     0.421369   
C107     C      0.678090000000     0.417730000000     0.002380000000     0.419194   
C108     C      0.711660000000     0.299240000000     0.573110000000     0.420477   
C109     C      0.677990000000     0.593400000000     0.495930000000     0.430379   
C110     C      0.711780000000     0.715730000000     0.940640000000     0.423139   
C111     C      0.583570000000     0.695400000000     0.994070000000     0.416891   
C112     C      0.702250000000     0.718360000000     0.563160000000     0.411681   
C113     C      0.815350000000     0.093500000000     0.756750000000     0.411795   
C114     C      0.791600000000     0.217410000000     0.822510000000     0.414189   
C115     C      0.913010000000     0.180350000000     0.755870000000     0.413957   
C116     C      0.786790000000     0.221960000000     0.701760000000     0.410124   
C117     C      0.906270000000     0.817930000000     0.750410000000     0.425259   
C118     C      0.786150000000     0.792930000000     0.812780000000     0.422049   
C119     C      0.809140000000     0.917910000000     0.750490000000     0.421731   
C120     C      0.776470000000     0.797330000000     0.690220000000     0.419028   
C121     C      0.081490000000     0.815820000000     0.730850000000     0.420343   
C122     C      0.200430000000     0.789850000000     0.652660000000     0.42482    
C123     C      0.174980000000     0.909190000000     0.718950000000     0.410277   
C124     C      0.211120000000     0.784630000000     0.776200000000     0.416897   
C125     C      0.089780000000     0.177040000000     0.743370000000     0.421442   
C126     C      0.217180000000     0.209160000000     0.792510000000     0.416877   
C127     C      0.182010000000     0.084890000000     0.726970000000     0.415853   
C128     C      0.212240000000     0.210840000000     0.671240000000     0.416829   
C129     C      0.155710000000     0.977630000000     0.694970000000     0.0421651  
C130     C      0.205390000000     0.971360000000     0.746540000000     0.046753   
C131     C      0.158310000000     0.021820000000     0.697130000000     0.0364405  
C132     C      0.208900000000     0.015880000000     0.748610000000     0.0265144  
C133     C      0.011430000000     0.797050000000     0.709710000000     0.0403497  
C134     C      0.021700000000     0.827190000000     0.771580000000     0.0477784  
C135     C      0.967270000000     0.796880000000     0.715540000000     0.0359539  
C136     C      0.977340000000     0.826830000000     0.777960000000     0.0314463  
C137     C      0.817090000000     0.025810000000     0.787470000000     0.040449   
C138     C      0.800570000000     0.030910000000     0.720680000000     0.046938   
C139     C      0.814780000000     0.981690000000     0.785420000000     0.0365147  
C140     C      0.797580000000     0.986320000000     0.718280000000     0.0301472  
C141     C      0.976290000000     0.182590000000     0.718240000000     0.0399393  
C142     C      0.981540000000     0.179250000000     0.786510000000     0.0469098  
C143     C      0.020790000000     0.182300000000     0.715700000000     0.0358959  
C144     C      0.026570000000     0.179150000000     0.784420000000     0.0315317  
C145     C      0.731940000000     0.788970000000     0.860410000000     0.0470227  
C146     C      0.788050000000     0.738860000000     0.861430000000     0.0508414  
C147     C      0.714040000000     0.769470000000     0.892840000000     0.0388996  
C148     C      0.770640000000     0.719100000000     0.894560000000     0.0289048  
C149     C      0.754000000000     0.764370000000     0.590910000000     0.0410817  
C150     C      0.701650000000     0.732960000000     0.630820000000     0.0476524  
C151     C      0.771900000000     0.784320000000     0.623120000000     0.037437   
C152     C      0.719150000000     0.753200000000     0.663660000000     0.0262767  
C153     C      0.742150000000     0.217410000000     0.874540000000     0.0400385  
C154     C      0.789560000000     0.275070000000     0.866740000000     0.0469756  
C155     C      0.724460000000     0.236970000000     0.906890000000     0.0357811  
C156     C      0.772190000000     0.295120000000     0.899480000000     0.0324284  
C157     C      0.728740000000     0.230070000000     0.657360000000     0.0400652  
C158     C      0.788190000000     0.275940000000     0.653160000000     0.0470041  
C159     C      0.710320000000     0.250030000000     0.625030000000     0.0345725  
C160     C      0.769920000000     0.296610000000     0.620650000000     0.0255911  
C161     C      0.696640000000     0.484660000000     0.029130000000     0.0429127  
C162     C      0.665490000000     0.481410000000     0.966630000000     0.049892   
C163     C      0.697240000000     0.528920000000     0.026650000000     0.0389664  
C164     C      0.666160000000     0.525990000000     0.963610000000     0.0339454  
C165     C      0.231840000000     0.712540000000     0.857670000000     0.0393675  
C166     C      0.290790000000     0.758990000000     0.853050000000     0.0460641  
C167     C      0.213190000000     0.732080000000     0.825270000000     0.0349469  
C168     C      0.272740000000     0.778620000000     0.819930000000     0.0251857  
C169     C      0.247860000000     0.709510000000     0.590510000000     0.040059   
C170     C      0.255350000000     0.775730000000     0.558770000000     0.046677   
C171     C      0.226140000000     0.729190000000     0.620650000000     0.035959   
C172     C      0.233320000000     0.796050000000     0.588930000000     0.0316998  
C173     C      0.470670000000     0.687670000000     0.519000000000     0.0406649  
C174     C      0.474910000000     0.706370000000     0.952710000000     0.0484876  
C175     C      0.515140000000     0.690340000000     0.522210000000     0.0354182  
C176     C      0.519600000000     0.710160000000     0.955750000000     0.0333047  
C177     C      0.234060000000     0.282320000000     0.872970000000     0.0414973  
C178     C      0.294000000000     0.236960000000     0.870760000000     0.0485803  
C179     C      0.216620000000     0.262010000000     0.840650000000     0.0387026  
C180     C      0.277290000000     0.216780000000     0.837630000000     0.0339166  
C181     C      0.259550000000     0.210790000000     0.617530000000     0.0414272  
C182     C      0.219680000000     0.272360000000     0.631410000000     0.0478092  
C183     C      0.277700000000     0.231450000000     0.585660000000     0.0360351  
C184     C      0.237720000000     0.293630000000     0.599390000000     0.0297603  
C185     C      0.518540000000     0.335390000000     0.532080000000     0.0392024  
C186     C      0.525140000000     0.297580000000     0.973600000000     0.0444145  
C187     C      0.474000000000     0.333830000000     0.528500000000     0.0344206  
C188     C      0.480370000000     0.295110000000     0.969980000000     0.0242652  
C189     C      0.349280000000     0.522220000000     0.949300000000     0.0384154  
C190     C      0.278380000000     0.524360000000     0.472090000000     0.0447762  
C191     C      0.348320000000     0.477900000000     0.950540000000     0.0338642  
C192     C      0.276690000000     0.479640000000     0.472770000000     0.0243648  
H1       H      0.138490000000     0.040100000000     0.177040000000     0.0516326  
H2       H      0.134530000000     0.963940000000     0.173260000000     0.0528506  
H3       H      0.224500000000     0.951890000000     0.266190000000     0.066302   
H4       H      0.299750000000     0.990300000000     0.274900000000     0.167485   
H5       H      0.947190000000     0.785070000000     0.192100000000     0.0517341  
H6       H      0.023510000000     0.784930000000     0.182470000000     0.0500835  
H7       H      0.042700000000     0.838910000000     0.294340000000     0.0628779  
H8       H      0.988770000000     0.847910000000     0.382020000000     0.172181   
H9       H      0.821100000000     0.963980000000     0.312060000000     0.0558564  
H10      H      0.824690000000     0.039940000000     0.315350000000     0.0510078  
H11      H      0.794610000000     0.049960000000     0.194820000000     0.0627448  
H12      H      0.753570000000     0.989670000000     0.119260000000     0.171691   
H13      H      0.034400000000     0.183220000000     0.186780000000     0.0520409  
H14      H      0.957810000000     0.184120000000     0.191430000000     0.050295   
H15      H      0.966500000000     0.178280000000     0.314780000000     0.0640134  
H16      H      0.039870000000     0.190890000000     0.389750000000     0.173606   
H17      H      0.684410000000     0.782880000000     0.403640000000     0.0619299  
H18      H      0.715670000000     0.816510000000     0.348070000000     0.0564487  
H19      H      0.817500000000     0.726530000000     0.349430000000     0.0606542  
H20      H      0.866460000000     0.697300000000     0.406270000000     0.164195   
H21      H      0.799770000000     0.804190000000     0.118120000000     0.0567075  
H22      H      0.768630000000     0.769920000000     0.062830000000     0.0531415  
H23      H      0.673750000000     0.712800000000     0.134270000000     0.0551998  
H24      H      0.653800000000     0.688150000000     0.202920000000     0.163535   
H25      H      0.698490000000     0.220440000000     0.421370000000     0.0521114  
H26      H      0.729440000000     0.186750000000     0.365900000000     0.0498868  
H27      H      0.815510000000     0.290480000000     0.351340000000     0.0649086  
H28      H      0.854630000000     0.378210000000     0.400250000000     0.176815   
H29      H      0.679510000000     0.238130000000     0.115140000000     0.0509416  
H30      H      0.711390000000     0.204060000000     0.170920000000     0.0504878  
H31      H      0.818970000000     0.286700000000     0.164040000000     0.055664   
H32      H      0.864140000000     0.336160000000     0.121580000000     0.164239   
H33      H      0.709740000000     0.546090000000     0.551530000000     0.0527042  
H34      H      0.709110000000     0.469690000000     0.555390000000     0.0585033  
H35      H      0.653130000000     0.463120000000     0.442430000000     0.0658108  
H36      H      0.639300000000     0.525580000000     0.359760000000     0.175405   
H37      H      0.182260000000     0.720060000000     0.315810000000     0.0524773  
H38      H      0.214700000000     0.686590000000     0.371540000000     0.0488494  
H39      H      0.321560000000     0.770030000000     0.363720000000     0.0596442  
H40      H      0.369320000000     0.799470000000     0.307760000000     0.163111   
H41      H      0.215680000000     0.709090000000     0.144540000000     0.0509262  
H42      H      0.252650000000     0.675360000000     0.092250000000     0.050552   
H43      H      0.266420000000     0.794600000000     0.034340000000     0.0638776  
H44      H      0.227330000000     0.897620000000     0.036060000000     0.174497   
H45      H      0.529360000000     0.683070000000     0.050360000000     0.0520988  
H46      H      0.452610000000     0.678910000000     0.044660000000     0.0487375  
H47      H      0.459550000000     0.713220000000     0.424990000000     0.0654688  
H48      H      0.529050000000     0.763560000000     0.361200000000     0.174918   
H49      H      0.185600000000     0.273140000000     0.330350000000     0.0603096  
H50      H      0.216100000000     0.308140000000     0.385800000000     0.0558023  
H51      H      0.324790000000     0.226730000000     0.382210000000     0.0727166  
H52      H      0.375700000000     0.155720000000     0.322440000000     0.177673   
H53      H      0.300750000000     0.213710000000     0.068760000000     0.0530225  
H54      H      0.268930000000     0.178140000000     0.123520000000     0.0526041  
H55      H      0.196520000000     0.288960000000     0.149050000000     0.0641965  
H56      H      0.165750000000     0.385200000000     0.108210000000     0.17896    
H57      H      0.455350000000     0.349240000000     0.050850000000     0.049953   
H58      H      0.532240000000     0.351420000000     0.057070000000     0.0485714  
H59      H      0.544780000000     0.282720000000     0.451690000000     0.0569932  
H60      H      0.504030000000     0.209660000000     0.433930000000     0.160977   
H61      H      0.377230000000     0.461290000000     0.442110000000     0.0516946  
H62      H      0.378490000000     0.537630000000     0.439710000000     0.0492602  
H63      H      0.250260000000     0.542190000000     0.980510000000     0.0572606  
H64      H      0.183860000000     0.497530000000     0.950150000000     0.160662   
H65      H      0.138490000000     0.040100000000     0.677040000000     0.0516058  
H66      H      0.134530000000     0.963940000000     0.673260000000     0.052812   
H67      H      0.224510000000     0.951890000000     0.766190000000     0.0662761  
H68      H      0.299760000000     0.990300000000     0.774900000000     0.167447   
H69      H      0.947190000000     0.785050000000     0.692110000000     0.0516822  
H70      H      0.023510000000     0.784910000000     0.682480000000     0.0500433  
H71      H      0.042710000000     0.838920000000     0.794340000000     0.0628603  
H72      H      0.988770000000     0.847940000000     0.882030000000     0.171933   
H73      H      0.821110000000     0.963980000000     0.812050000000     0.0558071  
H74      H      0.824690000000     0.039940000000     0.815350000000     0.0509876  
H75      H      0.794630000000     0.049960000000     0.694810000000     0.0627369  
H76      H      0.753620000000     0.989670000000     0.619250000000     0.171727   
H77      H      0.034400000000     0.183220000000     0.686780000000     0.0519994  
H78      H      0.957820000000     0.184130000000     0.691430000000     0.0502554  
H79      H      0.966500000000     0.178280000000     0.814780000000     0.0639867  
H80      H      0.039870000000     0.190870000000     0.889750000000     0.173611   
H81      H      0.684420000000     0.782870000000     0.903640000000     0.0619266  
H82      H      0.715680000000     0.816500000000     0.848060000000     0.0564276  
H83      H      0.817500000000     0.726520000000     0.849430000000     0.0606248  
H84      H      0.866460000000     0.697250000000     0.906240000000     0.164073   
H85      H      0.799850000000     0.804090000000     0.618130000000     0.0566474  
H86      H      0.768710000000     0.769830000000     0.562840000000     0.0530308  
H87      H      0.673690000000     0.712890000000     0.634250000000     0.0551864  
H88      H      0.653660000000     0.688320000000     0.702900000000     0.163607   
H89      H      0.698490000000     0.220440000000     0.921370000000     0.0520566  
H90      H      0.729450000000     0.186750000000     0.865890000000     0.0498561  
H91      H      0.815510000000     0.290480000000     0.851330000000     0.0648889  
H92      H      0.854640000000     0.378210000000     0.900240000000     0.176791   
H93      H      0.679510000000     0.238120000000     0.615140000000     0.0508522  
H94      H      0.711400000000     0.204050000000     0.670910000000     0.0504985  
H95      H      0.818970000000     0.286700000000     0.664040000000     0.0556624  
H96      H      0.864140000000     0.336160000000     0.621570000000     0.164147   
H97      H      0.709780000000     0.546090000000     0.051500000000     0.0527273  
H98      H      0.709150000000     0.469690000000     0.055370000000     0.0584338  
H99      H      0.653120000000     0.463120000000     0.942430000000     0.065741   
H100     H      0.639260000000     0.525580000000     0.859760000000     0.175279   
H101     H      0.182260000000     0.720060000000     0.815810000000     0.0524443  
H102     H      0.214700000000     0.686590000000     0.871550000000     0.0488147  
H103     H      0.321560000000     0.770030000000     0.863720000000     0.0596281  
H104     H      0.369330000000     0.799470000000     0.807770000000     0.163056   
H105     H      0.215680000000     0.709090000000     0.644540000000     0.0509049  
H106     H      0.252660000000     0.675360000000     0.592240000000     0.0505075  
H107     H      0.266420000000     0.794600000000     0.534340000000     0.0637916  
H108     H      0.227330000000     0.897620000000     0.536060000000     0.174395   
H109     H      0.529360000000     0.683060000000     0.550360000000     0.0521249  
H110     H      0.452600000000     0.678900000000     0.544650000000     0.0487195  
H111     H      0.459550000000     0.713210000000     0.924990000000     0.0654969  
H112     H      0.529050000000     0.763560000000     0.861200000000     0.174873   
H113     H      0.185610000000     0.273130000000     0.830360000000     0.0603117  
H114     H      0.216110000000     0.308140000000     0.885810000000     0.0557635  
H115     H      0.324800000000     0.226730000000     0.882210000000     0.0726713  
H116     H      0.375700000000     0.155720000000     0.822440000000     0.177633   
H117     H      0.300740000000     0.213710000000     0.568750000000     0.0529266  
H118     H      0.268930000000     0.178140000000     0.623520000000     0.0525592  
H119     H      0.196530000000     0.288960000000     0.649050000000     0.0641764  
H120     H      0.165750000000     0.385200000000     0.608220000000     0.178875   
H121     H      0.455340000000     0.349240000000     0.550850000000     0.0499877  
H122     H      0.532240000000     0.351410000000     0.557070000000     0.048508   
H123     H      0.544790000000     0.282710000000     0.951690000000     0.0570676  
H124     H      0.504040000000     0.209660000000     0.933940000000     0.160808   
H125     H      0.377230000000     0.461280000000     0.942120000000     0.0516557  
H126     H      0.378500000000     0.537630000000     0.939720000000     0.049229   
H127     H      0.250250000000     0.542200000000     0.480510000000     0.0573073  
H128     H      0.183860000000     0.497530000000     0.450160000000     0.160788   
In1      In     0.325390000000     0.328110000000     0.482430000000     2.43011    
In2      In     0.322960000000     0.674470000000     0.469890000000     2.41552    
In3      In     0.673690000000     0.332110000000     0.508190000000     2.44063    
In4      In     0.668820000000     0.679250000000     0.499920000000     2.44647    
In5      In     0.826350000000     0.178770000000     0.260010000000     2.42254    
In6      In     0.820410000000     0.832070000000     0.250460000000     2.44808    
In7      In     0.166530000000     0.823680000000     0.218210000000     2.4422     
In8      In     0.175560000000     0.170690000000     0.232720000000     2.44322    
In9      In     0.325390000000     0.328100000000     0.982430000000     2.42872    
In10     In     0.322960000000     0.674470000000     0.969900000000     2.41397    
In11     In     0.673700000000     0.332110000000     0.008190000000     2.44258    
In12     In     0.668820000000     0.679250000000     0.999920000000     2.44423    
In13     In     0.826360000000     0.178770000000     0.760000000000     2.4225     
In14     In     0.820420000000     0.832070000000     0.750460000000     2.44832    
In15     In     0.166540000000     0.823680000000     0.718210000000     2.44239    
In16     In     0.175560000000     0.170690000000     0.732730000000     2.44329    
N1       N      0.178660000000     0.952570000000     0.220100000000    -0.17281    
N2       N      0.183740000000     0.041220000000     0.224490000000    -0.166955   
N3       N      0.038360000000     0.813240000000     0.237310000000    -0.177276   
N4       N      0.949970000000     0.813460000000     0.248680000000    -0.170582   
N5       N      0.810900000000     0.050240000000     0.254970000000    -0.176399   
N6       N      0.806480000000     0.961600000000     0.250880000000    -0.16922    
N7       N      0.956780000000     0.180690000000     0.253570000000    -0.176342   
N8       N      0.046150000000     0.179650000000     0.248390000000    -0.169166   
N9       N      0.768700000000     0.773540000000     0.344670000000    -0.173657   
N10      N      0.732600000000     0.734270000000     0.409760000000    -0.165132   
N11      N      0.719240000000     0.738420000000     0.094890000000    -0.176001   
N12      N      0.755340000000     0.778420000000     0.159620000000    -0.166659   
N13      N      0.774380000000     0.236630000000     0.354390000000    -0.176345   
N14      N      0.738490000000     0.276100000000     0.419070000000    -0.169076   
N15      N      0.767840000000     0.242690000000     0.171000000000    -0.17587    
N16      N      0.730910000000     0.282610000000     0.106000000000    -0.168783   
N17      N      0.680030000000     0.461120000000     0.499440000000    -0.174233   
N18      N      0.680720000000     0.549810000000     0.994740000000    -0.170963   
N19      N      0.270220000000     0.726480000000     0.371800000000    -0.176175   
N20      N      0.232840000000     0.765520000000     0.306610000000    -0.167565   
N21      N      0.262600000000     0.732830000000     0.059790000000    -0.176975   
N22      N      0.219520000000     0.772380000000     0.120600000000    -0.170242   
N23      N      0.450890000000     0.694250000000     0.983970000000    -0.175469   
N24      N      0.539880000000     0.699570000000     0.490420000000    -0.168561   
N25      N      0.272440000000     0.269440000000     0.388140000000    -0.17434    
N26      N      0.237470000000     0.228820000000     0.323180000000    -0.166756   
N27      N      0.230570000000     0.231270000000     0.140250000000    -0.176639   
N28      N      0.267550000000     0.272890000000     0.076690000000    -0.168805   
N29      N      0.543930000000     0.318190000000     0.004130000000    -0.176586   
N30      N      0.454760000000     0.315320000000     0.496880000000    -0.168074   
N31      N      0.314780000000     0.545310000000     0.461160000000    -0.176991   
N32      N      0.312970000000     0.456420000000     0.963790000000    -0.167724   
N33      N      0.178670000000     0.952570000000     0.720100000000    -0.172836   
N34      N      0.183750000000     0.041220000000     0.724490000000    -0.166883   
N35      N      0.038370000000     0.813240000000     0.737320000000    -0.177308   
N36      N      0.949980000000     0.813450000000     0.748690000000    -0.170642   
N37      N      0.810920000000     0.050240000000     0.754970000000    -0.176393   
N38      N      0.806500000000     0.961600000000     0.750880000000    -0.169252   
N39      N      0.956790000000     0.180690000000     0.753570000000    -0.176305   
N40      N      0.046160000000     0.179650000000     0.748390000000    -0.169156   
N41      N      0.768710000000     0.773520000000     0.844660000000    -0.173726   
N42      N      0.732610000000     0.734250000000     0.909750000000    -0.165047   
N43      N      0.719250000000     0.738420000000     0.594890000000    -0.176033   
N44      N      0.755350000000     0.778430000000     0.659620000000    -0.166755   
N45      N      0.774390000000     0.236630000000     0.854390000000    -0.176378   
N46      N      0.738500000000     0.276100000000     0.919070000000    -0.169112   
N47      N      0.767840000000     0.242690000000     0.671000000000    -0.175782   
N48      N      0.730900000000     0.282600000000     0.606000000000    -0.168857   
N49      N      0.680040000000     0.461120000000     0.999430000000    -0.175021   
N50      N      0.680710000000     0.549800000000     0.494750000000    -0.170753   
N51      N      0.270220000000     0.726480000000     0.871800000000    -0.176089   
N52      N      0.232840000000     0.765520000000     0.806610000000    -0.167641   
N53      N      0.262600000000     0.732830000000     0.559790000000    -0.176984   
N54      N      0.219520000000     0.772380000000     0.620600000000    -0.170263   
N55      N      0.450890000000     0.694250000000     0.483970000000    -0.175367   
N56      N      0.539880000000     0.699570000000     0.990420000000    -0.16873    
N57      N      0.272450000000     0.269440000000     0.888150000000    -0.174451   
N58      N      0.237480000000     0.228820000000     0.823180000000    -0.166709   
N59      N      0.230570000000     0.231270000000     0.640250000000    -0.176681   
N60      N      0.267550000000     0.272890000000     0.576690000000    -0.168844   
N61      N      0.543920000000     0.318190000000     0.504130000000    -0.176861   
N62      N      0.454770000000     0.315320000000     0.996880000000    -0.168364   
N63      N      0.314790000000     0.545300000000     0.961160000000    -0.176919   
N64      N      0.312960000000     0.456420000000     0.463790000000    -0.167688   
O1       O      0.307940000000     0.270450000000     0.020530000000    -0.494309   
O2       O      0.287920000000     0.331020000000     0.039060000000    -0.471378   
O3       O      0.272180000000     0.320390000000     0.436350000000    -0.485587   
O4       O      0.289540000000     0.391230000000     0.487790000000    -0.460132   
O5       O      0.386950000000     0.332290000000     0.019440000000    -0.492009   
O6       O      0.347850000000     0.391850000000     0.957100000000    -0.494109   
O7       O      0.324450000000     0.277440000000     0.435450000000    -0.474077   
O8       O      0.391730000000     0.311830000000     0.461180000000    -0.473593   
O9       O      0.270770000000     0.677800000000     0.422610000000    -0.494411   
O10      O      0.322450000000     0.721520000000     0.419350000000    -0.480596   
O11      O      0.291630000000     0.673990000000     0.029870000000    -0.489866   
O12      O      0.286510000000     0.611470000000     0.974870000000    -0.484521   
O13      O      0.388830000000     0.691600000000     0.447340000000    -0.481629   
O14      O      0.350050000000     0.609420000000     0.453510000000    -0.497789   
O15      O      0.296140000000     0.733170000000     0.000170000000    -0.497503   
O16      O      0.383600000000     0.678020000000     0.007810000000    -0.491925   
O17      O      0.674520000000     0.288560000000     0.061980000000    -0.498592   
O18      O      0.729450000000     0.325610000000     0.050800000000    -0.478463   
O19      O      0.722230000000     0.333000000000     0.459030000000    -0.477193   
O20      O      0.612090000000     0.307470000000     0.480430000000    -0.494634   
O21      O      0.689950000000     0.397580000000     0.032500000000    -0.480093   
O22      O      0.606660000000     0.340950000000     0.033580000000    -0.495677   
O23      O      0.690110000000     0.275090000000     0.469900000000    -0.492212   
O24      O      0.663890000000     0.394600000000     0.475310000000    -0.489183   
O25      O      0.717320000000     0.722900000000     0.029490000000    -0.49317    
O26      O      0.670280000000     0.693800000000     0.065080000000    -0.483721   
O27      O      0.721820000000     0.679960000000     0.454960000000    -0.474094   
O28      O      0.695970000000     0.615390000000     0.521950000000    -0.497368   
O29      O      0.602000000000     0.687450000000     0.026130000000    -0.488996   
O30      O      0.655310000000     0.614920000000     0.972760000000    -0.488981   
O31      O      0.679670000000     0.732870000000     0.456530000000    -0.478987   
O32      O      0.608500000000     0.695420000000     0.465540000000    -0.472045   
O33      O      0.823280000000     0.232090000000     0.214860000000    -0.489499   
O34      O      0.769800000000     0.190390000000     0.218640000000    -0.48837    
O35      O      0.778190000000     0.182270000000     0.309670000000    -0.494036   
O36      O      0.825360000000     0.112580000000     0.287700000000    -0.492935   
O37      O      0.888990000000     0.180410000000     0.226180000000    -0.491917   
O38      O      0.810610000000     0.117550000000     0.227460000000    -0.488513   
O39      O      0.822360000000     0.233200000000     0.303630000000    -0.491738   
O40      O      0.893280000000     0.179680000000     0.287780000000    -0.489029   
O41      O      0.766770000000     0.791410000000     0.225270000000    -0.480813   
O42      O      0.808710000000     0.821180000000     0.185650000000    -0.4778     
O43      O      0.820250000000     0.780040000000     0.297060000000    -0.488002   
O44      O      0.880990000000     0.800740000000     0.226390000000    -0.493658   
O45      O      0.808320000000     0.896070000000     0.220010000000    -0.480797   
O46      O      0.887950000000     0.842140000000     0.274000000000    -0.489663   
O47      O      0.769340000000     0.825290000000     0.296700000000    -0.482508   
O48      O      0.815430000000     0.896090000000     0.280920000000    -0.48855    
O49      O      0.174430000000     0.772470000000     0.265090000000    -0.494429   
O50      O      0.224920000000     0.816440000000     0.257660000000    -0.471095   
O51      O      0.199870000000     0.829090000000     0.159490000000    -0.48333    
O52      O      0.098600000000     0.804570000000     0.199370000000    -0.495414   
O53      O      0.195160000000     0.884850000000     0.242080000000    -0.470685   
O54      O      0.107330000000     0.830680000000     0.255650000000    -0.501611   
O55      O      0.183690000000     0.767560000000     0.179160000000    -0.499611   
O56      O      0.150670000000     0.890270000000     0.195100000000    -0.48386    
O57      O      0.183570000000     0.227660000000     0.191700000000    -0.493935   
O58      O      0.222370000000     0.173580000000     0.181650000000    -0.492273   
O59      O      0.230240000000     0.175330000000     0.277120000000    -0.463521   
O60      O      0.115720000000     0.167100000000     0.270150000000    -0.481437   
O61      O      0.162560000000     0.107740000000     0.202090000000    -0.495759   
O62      O      0.107350000000     0.182990000000     0.210770000000    -0.493029   
O63      O      0.182590000000     0.223010000000     0.277890000000    -0.485496   
O64      O      0.197620000000     0.105650000000     0.254920000000    -0.464918   
O65      O      0.225560000000     0.058680000000     0.318550000000    -0.122018   
O66      O      0.281000000000     0.997100000000     0.297110000000    -0.252118   
O67      O      0.278770000000     0.071650000000     0.257450000000    -0.139974   
O68      O      0.923300000000     0.806150000000     0.340430000000    -0.15612    
O69      O      0.001140000000     0.839280000000     0.356860000000    -0.270002   
O70      O      0.939480000000     0.889490000000     0.324430000000    -0.152152   
O71      O      0.740410000000     0.931010000000     0.180220000000    -0.152511   
O72      O      0.761970000000     0.004180000000     0.143620000000    -0.270672   
O73      O      0.820780000000     0.941090000000     0.151450000000    -0.151354   
O74      O      0.090420000000     0.220780000000     0.328060000000    -0.150484   
O75      O      0.021400000000     0.190480000000     0.366210000000    -0.269121   
O76      O      0.079830000000     0.135380000000     0.337580000000    -0.147656   
O77      O      0.776020000000     0.631220000000     0.410230000000    -0.125194   
O78      O      0.849620000000     0.673470000000     0.395290000000    -0.257392   
O79      O      0.808670000000     0.686220000000     0.463130000000    -0.153099   
O80      O      0.679330000000     0.792180000000     0.227330000000    -0.137712   
O81      O      0.645670000000     0.718600000000     0.201410000000    -0.260926   
O82      O      0.722120000000     0.718050000000     0.239410000000    -0.150341   
O83      O      0.809720000000     0.339660000000     0.461690000000    -0.142713   
O84      O      0.843150000000     0.351010000000     0.390190000000    -0.267597   
O85      O      0.765110000000     0.383990000000     0.406450000000    -0.142225   
O86      O      0.766280000000     0.383390000000     0.099690000000    -0.135594   
O87      O      0.840080000000     0.353860000000     0.130850000000    -0.260189   
O88      O      0.816780000000     0.330720000000     0.057910000000    -0.142552   
O89      O      0.686600000000     0.584290000000     0.404030000000    -0.13639    
O90      O      0.648490000000     0.510500000000     0.383790000000    -0.266098   
O91      O      0.602780000000     0.570750000000     0.921480000000    -0.146908   
O92      O      0.279410000000     0.865790000000     0.301260000000    -0.128533   
O93      O      0.352420000000     0.823270000000     0.318500000000    -0.257583   
O94      O      0.311050000000     0.808080000000     0.250710000000    -0.154511   
O95      O      0.251670000000     0.879410000000     0.113210000000    -0.147507   
O96      O      0.234010000000     0.866810000000     0.036870000000    -0.26886    
O97      O      0.170570000000     0.860340000000     0.089520000000    -0.153809   
O98      O      0.572000000000     0.692080000000     0.391770000000    -0.140923   
O99      O      0.511500000000     0.753600000000     0.383340000000    -0.268857   
O100     O      0.581290000000     0.768120000000     0.428160000000    -0.150007   
O101     O      0.315100000000     0.188080000000     0.268450000000    -0.150368   
O102     O      0.360070000000     0.179070000000     0.335320000000    -0.262706   
O103     O      0.289940000000     0.130090000000     0.322930000000    -0.125485   
O104     O      0.201420000000     0.347210000000     0.042320000000    -0.140728   
O105     O      0.174770000000     0.356220000000     0.116300000000    -0.269978   
O106     O      0.254860000000     0.381420000000     0.096730000000    -0.137939   
O107     O      0.440570000000     0.292980000000     0.396290000000    -0.133877   
O108     O      0.498820000000     0.231750000000     0.413750000000    -0.260251   
O109     O      0.421580000000     0.230950000000     0.448620000000    -0.14901    
O110     O      0.226240000000     0.437780000000     0.028320000000    -0.124303   
O111     O      0.186750000000     0.492450000000     0.978510000000    -0.259685   
O112     O      0.215740000000     0.416990000000     0.952440000000    -0.146952   
O113     O      0.307930000000     0.270450000000     0.520520000000    -0.494721   
O114     O      0.287910000000     0.331020000000     0.539060000000    -0.471732   
O115     O      0.272180000000     0.320390000000     0.936350000000    -0.485562   
O116     O      0.289550000000     0.391220000000     0.987790000000    -0.460344   
O117     O      0.386940000000     0.332290000000     0.519440000000    -0.492888   
O118     O      0.347840000000     0.391850000000     0.457100000000    -0.494413   
O119     O      0.324450000000     0.277440000000     0.935460000000    -0.474223   
O120     O      0.391740000000     0.311820000000     0.961190000000    -0.473298   
O121     O      0.270770000000     0.677790000000     0.922620000000    -0.494187   
O122     O      0.322460000000     0.721510000000     0.919350000000    -0.480431   
O123     O      0.291630000000     0.673990000000     0.529870000000    -0.490216   
O124     O      0.286510000000     0.611470000000     0.474870000000    -0.484469   
O125     O      0.388830000000     0.691600000000     0.947340000000    -0.481233   
O126     O      0.350050000000     0.609410000000     0.953510000000    -0.497594   
O127     O      0.296130000000     0.733170000000     0.500170000000    -0.498035   
O128     O      0.383600000000     0.678020000000     0.507800000000    -0.492952   
O129     O      0.674520000000     0.288560000000     0.561980000000    -0.498563   
O130     O      0.729440000000     0.325610000000     0.550800000000    -0.478483   
O131     O      0.722240000000     0.333000000000     0.959020000000    -0.477671   
O132     O      0.612090000000     0.307470000000     0.980430000000    -0.495466   
O133     O      0.689930000000     0.397580000000     0.532510000000    -0.479678   
O134     O      0.606650000000     0.340950000000     0.533580000000    -0.495392   
O135     O      0.690120000000     0.275100000000     0.969900000000    -0.492822   
O136     O      0.663880000000     0.394600000000     0.975310000000    -0.490186   
O137     O      0.717360000000     0.722850000000     0.529500000000    -0.493734   
O138     O      0.670240000000     0.693850000000     0.565070000000    -0.483995   
O139     O      0.721830000000     0.679950000000     0.954960000000    -0.473853   
O140     O      0.695990000000     0.615390000000     0.021930000000    -0.496483   
O141     O      0.602000000000     0.687440000000     0.526120000000    -0.490072   
O142     O      0.655320000000     0.614920000000     0.472760000000    -0.489418   
O143     O      0.679670000000     0.732860000000     0.956520000000    -0.478823   
O144     O      0.608500000000     0.695410000000     0.965540000000    -0.47167    
O145     O      0.823290000000     0.232090000000     0.714860000000    -0.489546   
O146     O      0.769800000000     0.190390000000     0.718640000000    -0.488286   
O147     O      0.778200000000     0.182270000000     0.809670000000    -0.49397    
O148     O      0.825360000000     0.112580000000     0.787690000000    -0.493058   
O149     O      0.889000000000     0.180420000000     0.726180000000    -0.492042   
O150     O      0.810620000000     0.117550000000     0.727450000000    -0.488498   
O151     O      0.822370000000     0.233200000000     0.803630000000    -0.491578   
O152     O      0.893280000000     0.179680000000     0.787780000000    -0.489085   
O153     O      0.766740000000     0.791460000000     0.725260000000    -0.480782   
O154     O      0.808750000000     0.821140000000     0.685650000000    -0.477889   
O155     O      0.820260000000     0.780030000000     0.797050000000    -0.488074   
O156     O      0.881000000000     0.800730000000     0.726400000000    -0.493667   
O157     O      0.808340000000     0.896070000000     0.720010000000    -0.48096    
O158     O      0.887950000000     0.842140000000     0.774000000000    -0.489772   
O159     O      0.769360000000     0.825280000000     0.796700000000    -0.482611   
O160     O      0.815450000000     0.896090000000     0.780920000000    -0.488508   
O161     O      0.174440000000     0.772470000000     0.765090000000    -0.49452    
O162     O      0.224930000000     0.816440000000     0.757660000000    -0.471053   
O163     O      0.199870000000     0.829090000000     0.659490000000    -0.483394   
O164     O      0.098610000000     0.804570000000     0.699370000000    -0.495423   
O165     O      0.195170000000     0.884850000000     0.742080000000    -0.470735   
O166     O      0.107340000000     0.830680000000     0.755650000000    -0.501539   
O167     O      0.183700000000     0.767560000000     0.679170000000    -0.499625   
O168     O      0.150670000000     0.890270000000     0.695110000000    -0.483932   
O169     O      0.183580000000     0.227660000000     0.691710000000    -0.493885   
O170     O      0.222370000000     0.173580000000     0.681650000000    -0.492231   
O171     O      0.230250000000     0.175330000000     0.777120000000    -0.463499   
O172     O      0.115730000000     0.167090000000     0.770150000000    -0.481593   
O173     O      0.162560000000     0.107740000000     0.702090000000    -0.495593   
O174     O      0.107360000000     0.182990000000     0.710770000000    -0.493098   
O175     O      0.182600000000     0.223010000000     0.777890000000    -0.485664   
O176     O      0.197630000000     0.105650000000     0.754930000000    -0.464732   
O177     O      0.225570000000     0.058680000000     0.818550000000    -0.122041   
O178     O      0.281010000000     0.997110000000     0.797110000000    -0.252148   
O179     O      0.278770000000     0.071650000000     0.757450000000    -0.140032   
O180     O      0.923300000000     0.806160000000     0.840440000000    -0.156163   
O181     O      0.001150000000     0.839300000000     0.856860000000    -0.269835   
O182     O      0.939490000000     0.889510000000     0.824430000000    -0.152166   
O183     O      0.740440000000     0.931010000000     0.680210000000    -0.15255    
O184     O      0.762010000000     0.004180000000     0.643600000000    -0.270861   
O185     O      0.820820000000     0.941090000000     0.651440000000    -0.151434   
O186     O      0.090420000000     0.220770000000     0.828070000000    -0.150572   
O187     O      0.021410000000     0.190470000000     0.866210000000    -0.269309   
O188     O      0.079830000000     0.135370000000     0.837580000000    -0.147707   
O189     O      0.776000000000     0.631200000000     0.910220000000    -0.125207   
O190     O      0.849610000000     0.673420000000     0.895260000000    -0.257343   
O191     O      0.808680000000     0.686200000000     0.963110000000    -0.15333    
O192     O      0.679300000000     0.792340000000     0.727270000000    -0.137701   
O193     O      0.645570000000     0.718770000000     0.701370000000    -0.261019   
O194     O      0.721990000000     0.718170000000     0.739420000000    -0.150351   
O195     O      0.809720000000     0.339670000000     0.961680000000    -0.142983   
O196     O      0.843160000000     0.351010000000     0.890190000000    -0.267652   
O197     O      0.765110000000     0.383990000000     0.906450000000    -0.142295   
O198     O      0.766280000000     0.383380000000     0.599690000000    -0.135683   
O199     O      0.840080000000     0.353860000000     0.630850000000    -0.260184   
O200     O      0.816770000000     0.330720000000     0.557910000000    -0.142774   
O201     O      0.686570000000     0.584300000000     0.904020000000    -0.136385   
O202     O      0.648460000000     0.510500000000     0.883800000000    -0.266014   
O203     O      0.602810000000     0.570750000000     0.421460000000    -0.14689    
O204     O      0.279410000000     0.865790000000     0.801260000000    -0.12857    
O205     O      0.352420000000     0.823270000000     0.818510000000    -0.257593   
O206     O      0.311050000000     0.808080000000     0.750710000000    -0.154527   
O207     O      0.251670000000     0.879410000000     0.613210000000    -0.147567   
O208     O      0.234010000000     0.866810000000     0.536870000000    -0.268982   
O209     O      0.170570000000     0.860340000000     0.589520000000    -0.153899   
O210     O      0.572000000000     0.692070000000     0.891770000000    -0.140913   
O211     O      0.511500000000     0.753590000000     0.883340000000    -0.268852   
O212     O      0.581300000000     0.768110000000     0.928160000000    -0.150065   
O213     O      0.315100000000     0.188080000000     0.768450000000    -0.150371   
O214     O      0.360080000000     0.179070000000     0.835330000000    -0.262698   
O215     O      0.289940000000     0.130090000000     0.822930000000    -0.125461   
O216     O      0.201410000000     0.347220000000     0.542320000000    -0.140937   
O217     O      0.174780000000     0.356220000000     0.616310000000    -0.269991   
O218     O      0.254860000000     0.381420000000     0.596730000000    -0.138015   
O219     O      0.440570000000     0.292970000000     0.896290000000    -0.133842   
O220     O      0.498830000000     0.231750000000     0.913750000000    -0.260166   
O221     O      0.421590000000     0.230950000000     0.948630000000    -0.14913    
O222     O      0.226240000000     0.437790000000     0.528330000000    -0.124844   
O223     O      0.186750000000     0.492450000000     0.478510000000    -0.25974    
O224     O      0.215730000000     0.416990000000     0.452440000000    -0.146935   
S1       S      0.248740000000     0.036310000000     0.280680000000     0.298284   
S2       S      0.959740000000     0.840750000000     0.325280000000     0.293511   
S3       S      0.780190000000     0.965050000000     0.173020000000     0.2938     
S4       S      0.055200000000     0.181320000000     0.329350000000     0.294043   
S5       S      0.801190000000     0.677140000000     0.416150000000     0.295173   
S6       S      0.691700000000     0.745460000000     0.208430000000     0.295152   
S7       S      0.797450000000     0.343050000000     0.414800000000     0.293958   
S8       S      0.798340000000     0.341380000000     0.101840000000     0.294221   
S9       S      0.650740000000     0.548490000000     0.417920000000     0.295284   
S10      S      0.303860000000     0.819250000000     0.297220000000     0.295131   
S11      S      0.222230000000     0.851260000000     0.082440000000     0.294244   
S12      S      0.546770000000     0.730980000000     0.414420000000     0.295487   
S13      S      0.310590000000     0.177970000000     0.315600000000     0.29641    
S14      S      0.217310000000     0.345270000000     0.088380000000     0.298407   
S15      S      0.459850000000     0.262610000000     0.431900000000     0.295617   
S16      S      0.226140000000     0.456160000000     0.983110000000     0.293317   
S17      S      0.248750000000     0.036310000000     0.780670000000     0.298315   
S18      S      0.959740000000     0.840760000000     0.825290000000     0.293387   
S19      S      0.780220000000     0.965050000000     0.673000000000     0.293781   
S20      S      0.055200000000     0.181320000000     0.829360000000     0.294148   
S21      S      0.801190000000     0.677120000000     0.916140000000     0.295109   
S22      S      0.691630000000     0.745590000000     0.708400000000     0.2951     
S23      S      0.797450000000     0.343050000000     0.914800000000     0.293986   
S24      S      0.798340000000     0.341380000000     0.601840000000     0.294228   
S25      S      0.650720000000     0.548490000000     0.917920000000     0.295237   
S26      S      0.303870000000     0.819250000000     0.797220000000     0.295115   
S27      S      0.222230000000     0.851260000000     0.582440000000     0.294215   
S28      S      0.546770000000     0.730970000000     0.914420000000     0.295437   
S29      S      0.310600000000     0.177980000000     0.815600000000     0.296312   
S30      S      0.217310000000     0.345270000000     0.588380000000     0.2984     
S31      S      0.459860000000     0.262600000000     0.931910000000     0.295493   
S32      S      0.226130000000     0.456160000000     0.483110000000     0.293927   


