data_structure

_audit_creation_method RASPA-1.0
_audit_creation_date 2023-6-5
_audit_author_name 'Poobodin Mano'

_cell_length_a    31.8626
_cell_length_b    31.1164
_cell_length_c    34.1804
_cell_angle_alpha 89.5542
_cell_angle_beta  90.4459
_cell_angle_gamma 89.9991
_cell_volume      33886.1

_symmetry_cell_setting          triclinic
_symmetry_space_group_name_Hall 'P 1'
_symmetry_space_group_name_H-M  'P 1'
_symmetry_Int_Tables_number     1

_symmetry_equiv_pos_as_xyz 'x,y,z'

loop_
_atom_site_label
_atom_site_type_symbol
_atom_site_fract_x
_atom_site_fract_y
_atom_site_fract_z
_atom_site_charge
Br1      Br     0.257290000000     0.957070000000     0.275550000000    -0.185439   
Br2      Br     0.040050000000     0.826330000000     0.332750000000    -0.19424    
Br3      Br     0.836960000000     0.966850000000     0.153850000000    -0.186159   
Br4      Br     0.042620000000     0.230810000000     0.159560000000    -0.185136   
Br5      Br     0.693660000000     0.849160000000     0.327600000000    -0.18087    
Br6      Br     0.662660000000     0.820350000000     0.077290000000    -0.180618   
Br7      Br     0.838670000000     0.311780000000     0.339910000000    -0.190327   
Br8      Br     0.706030000000     0.168050000000     0.150510000000    -0.184197   
Br9      Br     0.655800000000     0.464700000000     0.081770000000    -0.191772   
Br10     Br     0.272610000000     0.651630000000     0.352530000000    -0.179475   
Br11     Br     0.199270000000     0.660820000000     0.085890000000    -0.185525   
Br12     Br     0.536390000000     0.692080000000     0.400220000000    -0.18529    
Br13     Br     0.233860000000     0.320130000000     0.282280000000    -0.180822   
Br14     Br     0.289080000000     0.158390000000     0.140450000000    -0.186483   
Br15     Br     0.453540000000     0.330790000000     0.396240000000    -0.188756   
Br16     Br     0.232030000000     0.457120000000     0.454030000000    -0.176386   
Br17     Br     0.257290000000     0.957070000000     0.775550000000    -0.185722   
Br18     Br     0.040050000000     0.826330000000     0.832750000000    -0.194675   
Br19     Br     0.836960000000     0.966850000000     0.653850000000    -0.186622   
Br20     Br     0.042620000000     0.230810000000     0.659570000000    -0.185637   
Br21     Br     0.693660000000     0.849160000000     0.827600000000    -0.181176   
Br22     Br     0.662660000000     0.820350000000     0.577290000000    -0.181374   
Br23     Br     0.838670000000     0.311780000000     0.839900000000    -0.190658   
Br24     Br     0.706030000000     0.168050000000     0.650510000000    -0.184562   
Br25     Br     0.655800000000     0.464700000000     0.581770000000    -0.192164   
Br26     Br     0.272610000000     0.651630000000     0.852530000000    -0.179696   
Br27     Br     0.199270000000     0.660820000000     0.585890000000    -0.186355   
Br28     Br     0.536390000000     0.692080000000     0.900220000000    -0.185542   
Br29     Br     0.233860000000     0.320140000000     0.782280000000    -0.180961   
Br30     Br     0.289080000000     0.158390000000     0.640440000000    -0.186911   
Br31     Br     0.453540000000     0.330790000000     0.896240000000    -0.189017   
Br32     Br     0.232030000000     0.457130000000     0.954030000000    -0.177164   
C1       C      0.315220000000     0.415640000000     0.995700000000     0.426296   
C2       C      0.291030000000     0.293460000000     0.422910000000     0.413348   
C3       C      0.411480000000     0.321070000000     0.482540000000     0.428302   
C4       C      0.288720000000     0.291250000000     0.047690000000     0.412355   
C5       C      0.313200000000     0.593110000000     0.499040000000     0.415477   
C6       C      0.279540000000     0.714670000000     0.052970000000     0.426807   
C7       C      0.404420000000     0.692150000000     0.988510000000     0.411814   
C8       C      0.284340000000     0.715210000000     0.427200000000     0.427063   
C9       C      0.584890000000     0.326070000000     0.987330000000     0.409375   
C10      C      0.710880000000     0.299520000000     0.432620000000     0.411064   
C11      C      0.670560000000     0.423210000000     0.495640000000     0.425727   
C12      C      0.707790000000     0.297870000000     0.054280000000     0.412458   
C13      C      0.667580000000     0.601080000000     0.994140000000     0.40825    
C14      C      0.702030000000     0.726490000000     0.431020000000     0.411983   
C15      C      0.577920000000     0.694920000000     0.487660000000     0.42718    
C16      C      0.701180000000     0.727340000000     0.052870000000     0.425479   
C17      C      0.825090000000     0.100980000000     0.242320000000     0.414152   
C18      C      0.791040000000     0.226900000000     0.306090000000     0.425552   
C19      C      0.912640000000     0.196490000000     0.244700000000     0.414107   
C20      C      0.785390000000     0.223500000000     0.183600000000     0.424252   
C21      C      0.906200000000     0.824470000000     0.244900000000     0.411885   
C22      C      0.779900000000     0.800330000000     0.302790000000     0.424613   
C23      C      0.822090000000     0.923180000000     0.239670000000     0.42696    
C24      C      0.780940000000     0.799770000000     0.180980000000     0.412893   
C25      C      0.079670000000     0.820960000000     0.245230000000     0.428306   
C26      C      0.201100000000     0.792990000000     0.177430000000     0.412798   
C27      C      0.175440000000     0.916330000000     0.231570000000     0.427401   
C28      C      0.201160000000     0.791390000000     0.301910000000     0.413252   
C29      C      0.085890000000     0.194510000000     0.239800000000     0.429055   
C30      C      0.207200000000     0.220250000000     0.297590000000     0.427144   
C31      C      0.176600000000     0.093980000000     0.230070000000     0.414891   
C32      C      0.209790000000     0.213370000000     0.173110000000     0.428077   
C33      C      0.148550000000     0.027590000000     0.208620000000     0.0353011  
C34      C      0.209970000000     0.028110000000     0.247400000000     0.00464468 
C35      C      0.148790000000     0.982830000000     0.209090000000     0.0410305  
C36      C      0.210530000000     0.983030000000     0.247980000000     0.158307   
C37      C      0.970820000000     0.815210000000     0.212160000000     0.0347797  
C38      C      0.970540000000     0.823570000000     0.280580000000     0.002005   
C39      C      0.014510000000     0.814240000000     0.212730000000     0.0416041  
C40      C      0.014560000000     0.822460000000     0.281480000000     0.156807   
C41      C      0.817350000000     0.033610000000     0.274430000000     0.0365653  
C42      C      0.829430000000     0.036060000000     0.206550000000     0.0044995  
C43      C      0.816680000000     0.988850000000     0.273290000000     0.0423533  
C44      C      0.828730000000     0.991080000000     0.205070000000     0.158411   
C45      C      0.978820000000     0.189200000000     0.276550000000     0.0356382  
C46      C      0.975580000000     0.210990000000     0.210450000000     0.00319731 
C47      C      0.022570000000     0.189260000000     0.275010000000     0.0414839  
C48      C      0.019450000000     0.211170000000     0.208610000000     0.158756   
C49      C      0.757290000000     0.728510000000     0.384880000000     0.0356579  
C50      C      0.703810000000     0.780690000000     0.381800000000     0.00488824 
C51      C      0.776330000000     0.747230000000     0.352340000000     0.0410516  
C52      C      0.722710000000     0.799780000000     0.349110000000     0.157991   
C53      C      0.773240000000     0.743390000000     0.135060000000     0.0355402  
C54      C      0.728170000000     0.803300000000     0.131610000000     0.00486618 
C55      C      0.753040000000     0.725730000000     0.102590000000     0.0410415  
C56      C      0.707620000000     0.785800000000     0.099010000000     0.157871   
C57      C      0.715690000000     0.245910000000     0.383900000000     0.0353711  
C58      C      0.767470000000     0.299740000000     0.387790000000     0.00259352 
C59      C      0.736100000000     0.228140000000     0.351940000000     0.0410895  
C60      C      0.788260000000     0.282100000000     0.355670000000     0.157097   
C61      C      0.760000000000     0.298420000000     0.104190000000     0.0366851  
C62      C      0.712060000000     0.240940000000     0.100830000000     0.00374087 
C63      C      0.779000000000     0.279460000000     0.136910000000     0.0418519  
C64      C      0.730920000000     0.221630000000     0.133720000000     0.157631   
C65      C      0.676200000000     0.534520000000     0.961800000000     0.0346709  
C66      C      0.663450000000     0.535270000000     0.029570000000     0.00369066 
C67      C      0.676900000000     0.489740000000     0.962650000000     0.0405591  
C68      C      0.664140000000     0.490240000000     0.030750000000     0.158164   
C69      C      0.229700000000     0.794420000000     0.366180000000     0.0381221  
C70      C      0.234550000000     0.730360000000     0.330250000000     0.00416459 
C71      C      0.251090000000     0.774920000000     0.397330000000     0.0423731  
C72      C      0.256090000000     0.710470000000     0.361360000000     0.158838   
C73      C      0.254060000000     0.791750000000     0.129050000000     0.0349649  
C74      C      0.205070000000     0.735200000000     0.132750000000     0.00431975 
C75      C      0.273490000000     0.771570000000     0.097760000000     0.0421603  
C76      C      0.224410000000     0.714610000000     0.101370000000     0.157056   
C77      C      0.469770000000     0.700070000000     0.021300000000     0.0378383  
C78      C      0.468040000000     0.693720000000     0.452690000000     0.00301773 
C79      C      0.513470000000     0.700750000000     0.020640000000     0.0436229  
C80      C      0.512030000000     0.694390000000     0.451710000000     0.158061   
C81      C      0.257050000000     0.234130000000     0.393120000000     0.0361943  
C82      C      0.263500000000     0.299410000000     0.358360000000     0.00623426 
C83      C      0.235520000000     0.216290000000     0.361520000000     0.0423153  
C84      C      0.241910000000     0.281780000000     0.326410000000     0.158647   
C85      C      0.235120000000     0.289640000000     0.095360000000     0.0370424  
C86      C      0.284110000000     0.233050000000     0.092750000000     0.00470244 
C87      C      0.215500000000     0.269530000000     0.126810000000     0.0460316  
C88      C      0.264600000000     0.212540000000     0.124390000000     0.158785   
C89      C      0.519410000000     0.315120000000     0.018220000000     0.0371437  
C90      C      0.521570000000     0.326530000000     0.450060000000     0.00307463 
C91      C      0.475760000000     0.313650000000     0.016500000000     0.0437652  
C92      C      0.477600000000     0.324970000000     0.448010000000     0.156867   
C93      C      0.341790000000     0.526300000000     0.019670000000     0.0363214  
C94      C      0.279550000000     0.527610000000     0.482040000000     0.00700498 
C95      C      0.341800000000     0.481560000000     0.018690000000     0.0447953  
C96      C      0.279270000000     0.482560000000     0.480920000000     0.160029   
C97      C      0.315220000000     0.415640000000     0.495700000000     0.429137   
C98      C      0.291030000000     0.293460000000     0.922910000000     0.413222   
C99      C      0.411480000000     0.321070000000     0.982540000000     0.425145   
C100     C      0.288720000000     0.291250000000     0.547690000000     0.412792   
C101     C      0.313200000000     0.593110000000     0.999040000000     0.410537   
C102     C      0.279540000000     0.714660000000     0.552970000000     0.427134   
C103     C      0.404420000000     0.692150000000     0.488510000000     0.414423   
C104     C      0.284340000000     0.715210000000     0.927200000000     0.426918   
C105     C      0.584890000000     0.326080000000     0.487330000000     0.412204   
C106     C      0.710880000000     0.299520000000     0.932620000000     0.410863   
C107     C      0.670560000000     0.423210000000     0.995640000000     0.422587   
C108     C      0.707790000000     0.297870000000     0.554280000000     0.412723   
C109     C      0.667580000000     0.601080000000     0.494140000000     0.411083   
C110     C      0.702030000000     0.726490000000     0.931020000000     0.411658   
C111     C      0.577920000000     0.694920000000     0.987660000000     0.424328   
C112     C      0.701180000000     0.727340000000     0.552870000000     0.425738   
C113     C      0.825090000000     0.100980000000     0.742320000000     0.414425   
C114     C      0.791040000000     0.226900000000     0.806090000000     0.425523   
C115     C      0.912640000000     0.196490000000     0.744700000000     0.414368   
C116     C      0.785390000000     0.223500000000     0.683600000000     0.42422    
C117     C      0.906200000000     0.824470000000     0.744900000000     0.411599   
C118     C      0.779900000000     0.800330000000     0.802790000000     0.424581   
C119     C      0.822090000000     0.923170000000     0.739670000000     0.426989   
C120     C      0.780940000000     0.799770000000     0.680980000000     0.412855   
C121     C      0.079670000000     0.820960000000     0.745240000000     0.428296   
C122     C      0.201100000000     0.792990000000     0.677430000000     0.412754   
C123     C      0.175440000000     0.916330000000     0.731560000000     0.427361   
C124     C      0.201160000000     0.791390000000     0.801910000000     0.413223   
C125     C      0.085890000000     0.194510000000     0.739800000000     0.429049   
C126     C      0.207200000000     0.220250000000     0.797590000000     0.427154   
C127     C      0.176600000000     0.093980000000     0.730070000000     0.414859   
C128     C      0.209790000000     0.213370000000     0.673110000000     0.428033   
C129     C      0.148550000000     0.027590000000     0.708620000000     0.0352227  
C130     C      0.209970000000     0.028110000000     0.747400000000     0.00459493 
C131     C      0.148790000000     0.982830000000     0.709090000000     0.0409923  
C132     C      0.210530000000     0.983030000000     0.747980000000     0.15824    
C133     C      0.970820000000     0.815210000000     0.712160000000     0.0346989  
C134     C      0.970540000000     0.823570000000     0.780580000000     0.00194368 
C135     C      0.014510000000     0.814250000000     0.712730000000     0.0415817  
C136     C      0.014560000000     0.822460000000     0.781480000000     0.156789   
C137     C      0.817350000000     0.033610000000     0.774430000000     0.0365359  
C138     C      0.829430000000     0.036060000000     0.706550000000     0.00446188 
C139     C      0.816680000000     0.988850000000     0.773290000000     0.042289   
C140     C      0.828730000000     0.991080000000     0.705070000000     0.158389   
C141     C      0.978820000000     0.189200000000     0.776550000000     0.0356019  
C142     C      0.975580000000     0.210990000000     0.710450000000     0.00313942 
C143     C      0.022570000000     0.189260000000     0.775010000000     0.0414281  
C144     C      0.019450000000     0.211170000000     0.708610000000     0.158765   
C145     C      0.757290000000     0.728510000000     0.884880000000     0.0355354  
C146     C      0.703810000000     0.780700000000     0.881800000000     0.00471142 
C147     C      0.776330000000     0.747230000000     0.852350000000     0.0409679  
C148     C      0.722710000000     0.799780000000     0.849110000000     0.157977   
C149     C      0.773240000000     0.743390000000     0.635060000000     0.0354428  
C150     C      0.728170000000     0.803300000000     0.631610000000     0.00476964 
C151     C      0.753040000000     0.725730000000     0.602590000000     0.0409445  
C152     C      0.707620000000     0.785800000000     0.599010000000     0.157831   
C153     C      0.715690000000     0.245910000000     0.883900000000     0.0352545  
C154     C      0.767470000000     0.299740000000     0.887790000000     0.00248228 
C155     C      0.736100000000     0.228140000000     0.851940000000     0.0410247  
C156     C      0.788260000000     0.282100000000     0.855670000000     0.157038   
C157     C      0.760000000000     0.298420000000     0.604190000000     0.0365906  
C158     C      0.712060000000     0.240940000000     0.600830000000     0.00364458 
C159     C      0.779000000000     0.279460000000     0.636910000000     0.0417559  
C160     C      0.730920000000     0.221630000000     0.633720000000     0.157559   
C161     C      0.676200000000     0.534520000000     0.461800000000     0.0350163  
C162     C      0.663450000000     0.535270000000     0.529570000000     0.00208846 
C163     C      0.676900000000     0.489740000000     0.462650000000     0.0409447  
C164     C      0.664140000000     0.490240000000     0.530750000000     0.156887   
C165     C      0.229700000000     0.794420000000     0.866180000000     0.0380163  
C166     C      0.234550000000     0.730360000000     0.830250000000     0.00411959 
C167     C      0.251090000000     0.774920000000     0.897320000000     0.0422817  
C168     C      0.256090000000     0.710470000000     0.861360000000     0.158776   
C169     C      0.254060000000     0.791750000000     0.629050000000     0.0348494  
C170     C      0.205070000000     0.735200000000     0.632750000000     0.00421526 
C171     C      0.273490000000     0.771570000000     0.597760000000     0.0420631  
C172     C      0.224410000000     0.714610000000     0.601370000000     0.156997   
C173     C      0.469770000000     0.700060000000     0.521300000000     0.0363323  
C174     C      0.468040000000     0.693720000000     0.952690000000     0.00263907 
C175     C      0.513470000000     0.700750000000     0.520640000000     0.042091   
C176     C      0.512030000000     0.694390000000     0.951710000000     0.157758   
C177     C      0.257050000000     0.234130000000     0.893120000000     0.0360608  
C178     C      0.263500000000     0.299410000000     0.858350000000     0.00610606 
C179     C      0.235520000000     0.216290000000     0.861520000000     0.0422821  
C180     C      0.241910000000     0.281780000000     0.826410000000     0.158589   
C181     C      0.235120000000     0.289640000000     0.595360000000     0.0369161  
C182     C      0.284110000000     0.233050000000     0.592750000000     0.00459688 
C183     C      0.215500000000     0.269530000000     0.626810000000     0.0459263  
C184     C      0.264600000000     0.212540000000     0.624390000000     0.158713   
C185     C      0.519410000000     0.315120000000     0.518220000000     0.0356196  
C186     C      0.521570000000     0.326530000000     0.950060000000     0.00275006 
C187     C      0.475760000000     0.313650000000     0.516500000000     0.042246   
C188     C      0.477600000000     0.324960000000     0.948010000000     0.156536   
C189     C      0.341790000000     0.526300000000     0.519670000000     0.0367871  
C190     C      0.279550000000     0.527610000000     0.982040000000     0.00464094 
C191     C      0.341800000000     0.481560000000     0.518690000000     0.0424956  
C192     C      0.279270000000     0.482560000000     0.980920000000     0.160318   
H1       H      0.123640000000     0.966670000000     0.193480000000     0.0507428  
H2       H      0.123450000000     0.043790000000     0.192760000000     0.0526386  
H3       H      0.234720000000     0.045200000000     0.262740000000     0.0787112  
H4       H      0.030180000000     0.810590000000     0.184900000000     0.0531074  
H5       H      0.954910000000     0.812290000000     0.184130000000     0.053986   
H6       H      0.953960000000     0.827180000000     0.307960000000     0.0749809  
H7       H      0.811520000000     0.971850000000     0.300660000000     0.0554829  
H8       H      0.812730000000     0.049040000000     0.302410000000     0.0538026  
H9       H      0.834520000000     0.053890000000     0.179600000000     0.0784804  
H10      H      0.039610000000     0.180120000000     0.301380000000     0.0501732  
H11      H      0.964060000000     0.180260000000     0.303920000000     0.052963   
H12      H      0.957870000000     0.220170000000     0.184460000000     0.0773742  
H13      H      0.805050000000     0.732600000000     0.342010000000     0.0516546  
H14      H      0.771970000000     0.700390000000     0.398020000000     0.0524006  
H15      H      0.675000000000     0.794620000000     0.392690000000     0.0812988  
H16      H      0.764240000000     0.694880000000     0.092430000000     0.0516616  
H17      H      0.799000000000     0.725590000000     0.148320000000     0.052176   
H18      H      0.717650000000     0.834180000000     0.142340000000     0.0813219  
H19      H      0.722190000000     0.199750000000     0.338950000000     0.0542991  
H20      H      0.687130000000     0.230600000000     0.394000000000     0.0538168  
H21      H      0.780650000000     0.328170000000     0.401350000000     0.0761065  
H22      H      0.805440000000     0.296180000000     0.149940000000     0.0549971  
H23      H      0.772460000000     0.328740000000     0.093580000000     0.0554238  
H24      H      0.685500000000     0.224940000000     0.087240000000     0.0772798  
H25      H      0.682320000000     0.473440000000     0.935200000000     0.0528108  
H26      H      0.681080000000     0.550640000000     0.933960000000     0.0539154  
H27      H      0.658100000000     0.552430000000     0.056590000000     0.0752277  
H28      H      0.256680000000     0.794130000000     0.423190000000     0.0527524  
H29      H      0.219960000000     0.827610000000     0.369300000000     0.0580884  
H30      H      0.228610000000     0.711880000000     0.303990000000     0.0776592  
H31      H      0.300480000000     0.787510000000     0.085060000000     0.0533544  
H32      H      0.266800000000     0.822100000000     0.139050000000     0.0538736  
H33      H      0.177990000000     0.719960000000     0.146020000000     0.0782048  
H34      H      0.529750000000     0.703480000000     0.048500000000     0.0549673  
H35      H      0.454430000000     0.702290000000     0.049430000000     0.0541454  
H36      H      0.450880000000     0.691040000000     0.425270000000     0.0770813  
H37      H      0.225250000000     0.183190000000     0.364420000000     0.0529104  
H38      H      0.262230000000     0.214200000000     0.418890000000     0.0532625  
H39      H      0.274050000000     0.332500000000     0.356280000000     0.0830868  
H40      H      0.188470000000     0.285550000000     0.139130000000     0.0616723  
H41      H      0.222430000000     0.319990000000     0.084860000000     0.057082   
H42      H      0.311200000000     0.217750000000     0.079780000000     0.0778934  
H43      H      0.459330000000     0.308570000000     0.043830000000     0.0542267  
H44      H      0.534520000000     0.311090000000     0.046550000000     0.0556034  
H45      H      0.538910000000     0.331520000000     0.423220000000     0.0758025  
H46      H      0.367360000000     0.465090000000     0.033650000000     0.0515809  
H47      H      0.367140000000     0.542180000000     0.035220000000     0.0531156  
H48      H      0.254390000000     0.544990000000     0.467350000000     0.0834484  
H49      H      0.123640000000     0.966670000000     0.693480000000     0.0506282  
H50      H      0.123450000000     0.043790000000     0.692760000000     0.052535   
H51      H      0.234720000000     0.045200000000     0.762740000000     0.07864    
H52      H      0.030180000000     0.810590000000     0.684900000000     0.0529701  
H53      H      0.954910000000     0.812290000000     0.684130000000     0.0538634  
H54      H      0.953960000000     0.827180000000     0.807960000000     0.074884   
H55      H      0.811520000000     0.971850000000     0.800660000000     0.0553781  
H56      H      0.812730000000     0.049040000000     0.802410000000     0.0536758  
H57      H      0.834520000000     0.053890000000     0.679600000000     0.0783683  
H58      H      0.039610000000     0.180120000000     0.801380000000     0.0500601  
H59      H      0.964060000000     0.180260000000     0.803920000000     0.0528383  
H60      H      0.957870000000     0.220170000000     0.684460000000     0.0772621  
H61      H      0.805050000000     0.732600000000     0.842010000000     0.0515654  
H62      H      0.771970000000     0.700390000000     0.898010000000     0.0522226  
H63      H      0.675000000000     0.794620000000     0.892700000000     0.0811698  
H64      H      0.764240000000     0.694880000000     0.592430000000     0.0514475  
H65      H      0.799000000000     0.725590000000     0.648320000000     0.0520672  
H66      H      0.717650000000     0.834180000000     0.642340000000     0.0812534  
H67      H      0.722190000000     0.199750000000     0.838950000000     0.0542062  
H68      H      0.687130000000     0.230600000000     0.894000000000     0.0536435  
H69      H      0.780650000000     0.328170000000     0.901350000000     0.0759371  
H70      H      0.805440000000     0.296180000000     0.649940000000     0.0548943  
H71      H      0.772460000000     0.328740000000     0.593580000000     0.055209   
H72      H      0.685500000000     0.224940000000     0.587240000000     0.0770788  
H73      H      0.682320000000     0.473440000000     0.435200000000     0.0528266  
H74      H      0.681080000000     0.550650000000     0.433960000000     0.0539511  
H75      H      0.658100000000     0.552430000000     0.556590000000     0.0753361  
H76      H      0.256680000000     0.794130000000     0.923190000000     0.0524632  
H77      H      0.219960000000     0.827610000000     0.869300000000     0.0579435  
H78      H      0.228610000000     0.711880000000     0.803990000000     0.0776245  
H79      H      0.300480000000     0.787510000000     0.585060000000     0.0531291  
H80      H      0.266800000000     0.822100000000     0.639050000000     0.0537543  
H81      H      0.177990000000     0.719960000000     0.646020000000     0.078125   
H82      H      0.529750000000     0.703480000000     0.548500000000     0.0550468  
H83      H      0.454430000000     0.702290000000     0.549430000000     0.0542208  
H84      H      0.450880000000     0.691040000000     0.925270000000     0.0770663  
H85      H      0.225250000000     0.183190000000     0.864420000000     0.0527483  
H86      H      0.262230000000     0.214200000000     0.918890000000     0.052979   
H87      H      0.274050000000     0.332500000000     0.856280000000     0.0830661  
H88      H      0.188470000000     0.285550000000     0.639130000000     0.0615565  
H89      H      0.222430000000     0.319980000000     0.584860000000     0.0568156  
H90      H      0.311200000000     0.217750000000     0.579780000000     0.0776769  
H91      H      0.459330000000     0.308570000000     0.543830000000     0.0542954  
H92      H      0.534530000000     0.311090000000     0.546550000000     0.0556772  
H93      H      0.538910000000     0.331520000000     0.923210000000     0.0757866  
H94      H      0.367360000000     0.465090000000     0.533650000000     0.0517378  
H95      H      0.367140000000     0.542180000000     0.535220000000     0.0526214  
H96      H      0.254390000000     0.544990000000     0.967350000000     0.0837801  
In1      In     0.326860000000     0.329910000000     0.486620000000     2.43104    
In2      In     0.320480000000     0.679450000000     0.491840000000     2.42924    
In3      In     0.669090000000     0.336110000000     0.492380000000     2.42825    
In4      In     0.662750000000     0.687860000000     0.491690000000     2.43124    
In5      In     0.828180000000     0.187750000000     0.244660000000     2.43289    
In6      In     0.822050000000     0.836010000000     0.242040000000     2.43233    
In7      In     0.164160000000     0.830240000000     0.239430000000     2.42706    
In8      In     0.169780000000     0.180360000000     0.236110000000     2.43326    
In9      In     0.326860000000     0.329910000000     0.986620000000     2.42412    
In10     In     0.320480000000     0.679440000000     0.991840000000     2.4225     
In11     In     0.669090000000     0.336110000000     0.992380000000     2.42156    
In12     In     0.662750000000     0.687860000000     0.991690000000     2.4243     
In13     In     0.828180000000     0.187750000000     0.744660000000     2.43304    
In14     In     0.822050000000     0.836010000000     0.742040000000     2.43214    
In15     In     0.164160000000     0.830240000000     0.739430000000     2.42699    
In16     In     0.169780000000     0.180360000000     0.736110000000     2.43319    
N1       N      0.178590000000     0.050100000000     0.228470000000    -0.166686   
N2       N      0.178960000000     0.960310000000     0.229480000000    -0.188987   
N3       N      0.948980000000     0.820770000000     0.245940000000    -0.167471   
N4       N      0.036640000000     0.818850000000     0.247060000000    -0.189499   
N5       N      0.823900000000     0.057060000000     0.241110000000    -0.16672    
N6       N      0.822500000000     0.967330000000     0.238850000000    -0.188326   
N7       N      0.955490000000     0.199130000000     0.244020000000    -0.166888   
N8       N      0.043030000000     0.198910000000     0.240890000000    -0.189361   
N9       N      0.721090000000     0.745260000000     0.399480000000    -0.166248   
N10      N      0.759370000000     0.782860000000     0.334360000000    -0.188598   
N11      N      0.760780000000     0.782130000000     0.149450000000    -0.166505   
N12      N      0.720210000000     0.746600000000     0.084450000000    -0.188695   
N13      N      0.731350000000     0.281700000000     0.401660000000    -0.167285   
N14      N      0.772300000000     0.245980000000     0.337610000000    -0.188941   
N15      N      0.726630000000     0.279090000000     0.086210000000    -0.166737   
N16      N      0.764830000000     0.241070000000     0.151780000000    -0.188035   
N17      N      0.669190000000     0.557140000000     0.995190000000    -0.167873   
N18      N      0.670580000000     0.467350000000     0.496840000000    -0.189132   
N19      N      0.221500000000     0.772090000000     0.332760000000    -0.165976   
N20      N      0.264260000000     0.733000000000     0.395240000000    -0.188446   
N21      N      0.219970000000     0.773470000000     0.146470000000    -0.166781   
N22      N      0.258980000000     0.733040000000     0.083800000000    -0.188911   
N23      N      0.447200000000     0.695710000000     0.987430000000    -0.168008   
N24      N      0.534850000000     0.696940000000     0.486160000000    -0.188446   
N25      N      0.270880000000     0.275640000000     0.391490000000    -0.166014   
N26      N      0.227880000000     0.239790000000     0.328090000000    -0.188799   
N27      N      0.269400000000     0.271420000000     0.078500000000    -0.166341   
N28      N      0.230090000000     0.231170000000     0.141620000000    -0.187076   
N29      N      0.542160000000     0.322370000000     0.985140000000    -0.167748   
N30      N      0.454580000000     0.319510000000     0.481750000000    -0.189122   
N31      N      0.311250000000     0.549210000000     0.500560000000    -0.165749   
N32      N      0.311400000000     0.459500000000     0.998510000000    -0.189499   
N33      N      0.178590000000     0.050100000000     0.728470000000    -0.166707   
N34      N      0.178960000000     0.960310000000     0.729470000000    -0.189005   
N35      N      0.948980000000     0.820770000000     0.745940000000    -0.167435   
N36      N      0.036640000000     0.818850000000     0.747060000000    -0.18953    
N37      N      0.823900000000     0.057060000000     0.741110000000    -0.166797   
N38      N      0.822500000000     0.967330000000     0.738850000000    -0.188285   
N39      N      0.955490000000     0.199130000000     0.744020000000    -0.166961   
N40      N      0.043030000000     0.198910000000     0.740890000000    -0.189386   
N41      N      0.721090000000     0.745260000000     0.899480000000    -0.166236   
N42      N      0.759370000000     0.782860000000     0.834360000000    -0.188616   
N43      N      0.760780000000     0.782130000000     0.649450000000    -0.166521   
N44      N      0.720210000000     0.746600000000     0.584450000000    -0.188837   
N45      N      0.731350000000     0.281700000000     0.901660000000    -0.167319   
N46      N      0.772300000000     0.245980000000     0.837610000000    -0.188961   
N47      N      0.726630000000     0.279090000000     0.586210000000    -0.166878   
N48      N      0.764830000000     0.241070000000     0.651780000000    -0.188054   
N49      N      0.669190000000     0.557140000000     0.495190000000    -0.167195   
N50      N      0.670580000000     0.467350000000     0.996840000000    -0.189708   
N51      N      0.221500000000     0.772090000000     0.832760000000    -0.165991   
N52      N      0.264260000000     0.733000000000     0.895240000000    -0.188487   
N53      N      0.219970000000     0.773470000000     0.646470000000    -0.166802   
N54      N      0.258980000000     0.733040000000     0.583800000000    -0.189043   
N55      N      0.447200000000     0.695710000000     0.487430000000    -0.167292   
N56      N      0.534850000000     0.696940000000     0.986160000000    -0.189104   
N57      N      0.270880000000     0.275640000000     0.891490000000    -0.166026   
N58      N      0.227880000000     0.239780000000     0.828090000000    -0.188836   
N59      N      0.269400000000     0.271420000000     0.578500000000    -0.166527   
N60      N      0.230090000000     0.231170000000     0.641620000000    -0.187099   
N61      N      0.542160000000     0.322370000000     0.485140000000    -0.167075   
N62      N      0.454580000000     0.319500000000     0.981750000000    -0.189725   
N63      N      0.311250000000     0.549200000000     0.000560000000    -0.162805   
N64      N      0.311400000000     0.459500000000     0.498510000000    -0.188561   
O1       O      0.276230000000     0.326650000000     0.033440000000    -0.491309   
O2       O      0.320440000000     0.275550000000     0.031110000000    -0.48035    
O3       O      0.303410000000     0.332010000000     0.423240000000    -0.473512   
O4       O      0.290770000000     0.392470000000     0.475800000000    -0.464236   
O5       O      0.391120000000     0.317490000000     0.013920000000    -0.488827   
O6       O      0.345140000000     0.395110000000     0.011500000000    -0.49728    
O7       O      0.297750000000     0.273040000000     0.454380000000    -0.494305   
O8       O      0.388750000000     0.328300000000     0.452860000000    -0.47755    
O9       O      0.291230000000     0.735920000000     0.458240000000    -0.498045   
O10      O      0.296660000000     0.676770000000     0.428800000000    -0.466613   
O11      O      0.310830000000     0.732100000000     0.036870000000    -0.488186   
O12      O      0.342820000000     0.614130000000     0.014440000000    -0.491632   
O13      O      0.382080000000     0.686730000000     0.458250000000    -0.491573   
O14      O      0.286590000000     0.615810000000     0.480690000000    -0.468738   
O15      O      0.269150000000     0.679270000000     0.038060000000    -0.477798   
O16      O      0.384230000000     0.692060000000     0.020120000000    -0.484896   
O17      O      0.676620000000     0.281460000000     0.036920000000    -0.486213   
O18      O      0.719790000000     0.333330000000     0.040030000000    -0.486668   
O19      O      0.677180000000     0.284270000000     0.446110000000    -0.492312   
O20      O      0.607350000000     0.333930000000     0.457850000000    -0.489059   
O21      O      0.676360000000     0.402600000000     0.964430000000    -0.491016   
O22      O      0.605010000000     0.322980000000     0.019200000000    -0.483629   
O23      O      0.723760000000     0.332960000000     0.449640000000    -0.488907   
O24      O      0.664220000000     0.399550000000     0.525070000000    -0.475326   
O25      O      0.713180000000     0.691660000000     0.039550000000    -0.49468    
O26      O      0.670030000000     0.743010000000     0.034890000000    -0.471821   
O27      O      0.716500000000     0.693450000000     0.448070000000    -0.489474   
O28      O      0.672420000000     0.622600000000     0.463030000000    -0.48699    
O29      O      0.598450000000     0.697660000000     0.019320000000    -0.486151   
O30      O      0.660590000000     0.623410000000     0.024090000000    -0.487975   
O31      O      0.668110000000     0.740360000000     0.445030000000    -0.482334   
O32      O      0.600490000000     0.688730000000     0.458150000000    -0.473378   
O33      O      0.775550000000     0.188030000000     0.199000000000    -0.47324    
O34      O      0.816700000000     0.241280000000     0.199620000000    -0.487661   
O35      O      0.776210000000     0.193770000000     0.289930000000    -0.492254   
O36      O      0.820010000000     0.121830000000     0.273500000000    -0.487353   
O37      O      0.890010000000     0.204190000000     0.214970000000    -0.487447   
O38      O      0.831600000000     0.123970000000     0.212380000000    -0.487836   
O39      O      0.824480000000     0.240290000000     0.290820000000    -0.47762    
O40      O      0.892570000000     0.184830000000     0.274670000000    -0.490549   
O41      O      0.811390000000     0.781650000000     0.198320000000    -0.490279   
O42      O      0.771000000000     0.835840000000     0.194800000000    -0.482756   
O43      O      0.813330000000     0.784510000000     0.289360000000    -0.495445   
O44      O      0.884620000000     0.831260000000     0.275050000000    -0.490502   
O45      O      0.827190000000     0.900270000000     0.209860000000    -0.473564   
O46      O      0.885180000000     0.822860000000     0.213470000000    -0.489719   
O47      O      0.767810000000     0.833780000000     0.285040000000    -0.473226   
O48      O      0.816800000000     0.901780000000     0.270800000000    -0.487542   
O49      O      0.193570000000     0.772190000000     0.270260000000    -0.492418   
O50      O      0.189230000000     0.830080000000     0.302400000000    -0.473851   
O51      O      0.169570000000     0.777140000000     0.194400000000    -0.482113   
O52      O      0.099170000000     0.819090000000     0.213300000000    -0.49211    
O53      O      0.199900000000     0.892620000000     0.251260000000    -0.465579   
O54      O      0.103180000000     0.826880000000     0.274530000000    -0.478448   
O55      O      0.214010000000     0.828010000000     0.191660000000    -0.492558   
O56      O      0.145790000000     0.896150000000     0.215230000000    -0.501419   
O57      O      0.178150000000     0.230780000000     0.188370000000    -0.475108   
O58      O      0.221080000000     0.178940000000     0.189800000000    -0.475989   
O59      O      0.194720000000     0.181740000000     0.299160000000    -0.488498   
O60      O      0.106660000000     0.197040000000     0.208720000000    -0.471106   
O61      O      0.147550000000     0.115320000000     0.213780000000    -0.496825   
O62      O      0.107790000000     0.184950000000     0.269640000000    -0.49898    
O63      O      0.199790000000     0.238490000000     0.265300000000    -0.479502   
O64      O      0.202760000000     0.116340000000     0.249000000000    -0.477996   
O65      O      0.276230000000     0.326650000000     0.533440000000    -0.493066   
O66      O      0.320440000000     0.275560000000     0.531110000000    -0.482079   
O67      O      0.303410000000     0.332010000000     0.923240000000    -0.473003   
O68      O      0.290770000000     0.392470000000     0.975800000000    -0.463401   
O69      O      0.391120000000     0.317490000000     0.513910000000    -0.491957   
O70      O      0.345140000000     0.395110000000     0.511500000000    -0.50041    
O71      O      0.297750000000     0.273040000000     0.954380000000    -0.494292   
O72      O      0.388750000000     0.328300000000     0.952860000000    -0.476491   
O73      O      0.291230000000     0.735920000000     0.958240000000    -0.497932   
O74      O      0.296660000000     0.676770000000     0.928800000000    -0.466158   
O75      O      0.310830000000     0.732100000000     0.536870000000    -0.489815   
O76      O      0.342820000000     0.614130000000     0.514430000000    -0.495226   
O77      O      0.382080000000     0.686730000000     0.958250000000    -0.490673   
O78      O      0.286590000000     0.615810000000     0.980690000000    -0.467614   
O79      O      0.269150000000     0.679270000000     0.538060000000    -0.479523   
O80      O      0.384230000000     0.692060000000     0.520130000000    -0.487604   
O81      O      0.676620000000     0.281460000000     0.536920000000    -0.487733   
O82      O      0.719790000000     0.333330000000     0.540030000000    -0.488204   
O83      O      0.677180000000     0.284270000000     0.946120000000    -0.492136   
O84      O      0.607350000000     0.333930000000     0.957850000000    -0.488029   
O85      O      0.676360000000     0.402600000000     0.464440000000    -0.49222    
O86      O      0.605010000000     0.322980000000     0.519200000000    -0.486571   
O87      O      0.723760000000     0.332960000000     0.949640000000    -0.488679   
O88      O      0.664220000000     0.399550000000     0.025070000000    -0.472313   
O89      O      0.713180000000     0.691660000000     0.539540000000    -0.496277   
O90      O      0.670030000000     0.743010000000     0.534890000000    -0.473317   
O91      O      0.716500000000     0.693450000000     0.948070000000    -0.489218   
O92      O      0.672420000000     0.622600000000     0.963030000000    -0.485961   
O93      O      0.598450000000     0.697660000000     0.519320000000    -0.489113   
O94      O      0.660590000000     0.623410000000     0.524090000000    -0.490954   
O95      O      0.668110000000     0.740370000000     0.945030000000    -0.481951   
O96      O      0.600490000000     0.688730000000     0.958150000000    -0.472328   
O97      O      0.775550000000     0.188030000000     0.699000000000    -0.473287   
O98      O      0.816700000000     0.241280000000     0.699620000000    -0.487731   
O99      O      0.776210000000     0.193770000000     0.789930000000    -0.492315   
O100     O      0.820010000000     0.121830000000     0.773490000000    -0.487649   
O101     O      0.890010000000     0.204190000000     0.714970000000    -0.487608   
O102     O      0.831600000000     0.123970000000     0.712380000000    -0.487992   
O103     O      0.824480000000     0.240290000000     0.790820000000    -0.47767    
O104     O      0.892570000000     0.184830000000     0.774660000000    -0.490842   
O105     O      0.811390000000     0.781650000000     0.698320000000    -0.490329   
O106     O      0.771000000000     0.835840000000     0.694800000000    -0.482785   
O107     O      0.813330000000     0.784510000000     0.789360000000    -0.495488   
O108     O      0.884620000000     0.831260000000     0.775050000000    -0.490508   
O109     O      0.827190000000     0.900270000000     0.709860000000    -0.473664   
O110     O      0.885180000000     0.822860000000     0.713460000000    -0.489589   
O111     O      0.767810000000     0.833780000000     0.785040000000    -0.473238   
O112     O      0.816800000000     0.901780000000     0.770800000000    -0.487652   
O113     O      0.193570000000     0.772190000000     0.770260000000    -0.492442   
O114     O      0.189230000000     0.830080000000     0.802400000000    -0.47391    
O115     O      0.169570000000     0.777140000000     0.694400000000    -0.482176   
O116     O      0.099170000000     0.819090000000     0.713300000000    -0.492114   
O117     O      0.199900000000     0.892620000000     0.751260000000    -0.465565   
O118     O      0.103180000000     0.826880000000     0.774530000000    -0.478569   
O119     O      0.214010000000     0.828010000000     0.691660000000    -0.492627   
O120     O      0.145790000000     0.896150000000     0.715230000000    -0.501536   
O121     O      0.178150000000     0.230780000000     0.688370000000    -0.475159   
O122     O      0.221080000000     0.178940000000     0.689800000000    -0.476024   
O123     O      0.194720000000     0.181740000000     0.799160000000    -0.488578   
O124     O      0.106660000000     0.197040000000     0.708720000000    -0.471163   
O125     O      0.147550000000     0.115320000000     0.713780000000    -0.496899   
O126     O      0.107790000000     0.184950000000     0.769640000000    -0.499056   
O127     O      0.199790000000     0.238490000000     0.765300000000    -0.479534   
O128     O      0.202760000000     0.116340000000     0.749000000000    -0.478045   


