data_structure

_audit_creation_method RASPA-1.0
_audit_creation_date 2023-5-23
_audit_author_name 'Poobodin Mano'

_cell_length_a    50.4081
_cell_length_b    50.4124
_cell_length_c    23.5434
_cell_angle_alpha 90.0002
_cell_angle_beta  89.6078
_cell_angle_gamma 120
_cell_volume      51811.2

_symmetry_cell_setting          triclinic
_symmetry_space_group_name_Hall 'P 1'
_symmetry_space_group_name_H-M  'P 1'
_symmetry_Int_Tables_number     1

_symmetry_equiv_pos_as_xyz 'x,y,z'

loop_
_atom_site_label
_atom_site_type_symbol
_atom_site_fract_x
_atom_site_fract_y
_atom_site_fract_z
_atom_site_charge
C1       C      0.342440000000     0.294210000000     0.284790000000     0.411366   
C2       C      0.421330000000     0.294110000000     0.376400000000     0.41118    
C3       C      0.327070000000     0.224110000000     0.414100000000     0.41442    
C4       C      0.366580000000     0.224190000000     0.247400000000     0.414777   
C5       C      0.283600000000     0.435410000000     0.128130000000     0.413519   
C6       C      0.283110000000     0.352460000000     0.200100000000     0.414222   
C7       C      0.210160000000     0.374890000000     0.246550000000     0.41128    
C8       C      0.210550000000     0.340620000000     0.081540000000     0.410294   
C9       C      0.421220000000     0.131570000000     0.950930000000     0.411882   
C10      C      0.342810000000     0.053260000000     0.043280000000     0.411881   
C11      C      0.366360000000     0.147810000000     0.079430000000     0.414539   
C12      C      0.326740000000     0.108080000000     0.914950000000     0.414908   
C13      C      0.039400000000     0.191500000000     0.866860000000     0.413878   
C14      C      0.121790000000     0.191600000000     0.795770000000     0.414134   
C15      C      0.100300000000     0.265400000000     0.749300000000     0.411878   
C16      C      0.134530000000     0.265170000000     0.913350000000     0.411398   
C17      C      0.179700000000     0.131500000000     0.711700000000     0.411773   
C18      C      0.179920000000     0.053120000000     0.619550000000     0.411642   
C19      C      0.250630000000     0.147620000000     0.582780000000     0.413749   
C20      C      0.250430000000     0.107910000000     0.747960000000     0.414722   
C21      C      0.121230000000     0.435720000000     0.534120000000     0.413617   
C22      C      0.038630000000     0.352710000000     0.461710000000     0.414501   
C23      C      0.133840000000     0.375410000000     0.415190000000     0.411026   
C24      C      0.099200000000     0.340940000000     0.580800000000     0.409838   
C25      C      0.138470000000     0.001720000000     0.623440000000     0.0330888  
C26      C      0.174260000000     0.017710000000     0.547870000000     0.032468   
C27      C      0.159550000000     0.488000000000     0.526430000000     0.0323474  
C28      C      0.123470000000     0.471970000000     0.601520000000     0.0323786  
C29      C      0.124320000000     0.157770000000     0.728300000000     0.0325544  
C30      C      0.158960000000     0.176210000000     0.804750000000     0.0324051  
C31      C      0.173440000000     0.160810000000     0.783690000000     0.0326205  
C32      C      0.139100000000     0.142640000000     0.706760000000     0.0331691  
C33      C      0.102300000000     0.278080000000     0.651630000000     0.0330038  
C34      C      0.098940000000     0.309980000000     0.721280000000     0.0341106  
C35      C      0.098830000000     0.329190000000     0.678640000000     0.0327603  
C36      C      0.101740000000     0.297040000000     0.608990000000     0.0339787  
C37      C      0.456940000000     0.160700000000     0.878560000000     0.0325913  
C38      C      0.972910000000     0.142630000000     0.956190000000     0.0328442  
C39      C      0.002880000000     0.157730000000     0.934670000000     0.0329653  
C40      C      0.986860000000     0.176040000000     0.857480000000     0.0321505  
C41      C      0.311650000000     0.134750000000     0.852130000000     0.0338484  
C42      C      0.284520000000     0.080670000000     0.853060000000     0.0327365  
C43      C      0.265010000000     0.080630000000     0.811060000000     0.0327628  
C44      C      0.292480000000     0.134700000000     0.809730000000     0.033969   
C45      C      0.164920000000     0.375100000000     0.274690000000     0.0340876  
C46      C      0.197740000000     0.373830000000     0.344330000000     0.0329421  
C47      C      0.178560000000     0.374230000000     0.387000000000     0.0341729  
C48      C      0.145500000000     0.375020000000     0.317360000000     0.0328471  
C49      C      0.298260000000     0.987800000000     0.136740000000     0.0324355  
C50      C      0.317500000000     0.471880000000     0.060390000000     0.0323674  
C51      C      0.332390000000     0.001750000000     0.038640000000     0.0333218  
C52      C      0.313400000000     0.017640000000     0.115460000000     0.0325768  
C53      C      0.164500000000     0.296370000000     0.053580000000     0.0339737  
C54      C      0.199180000000     0.329290000000     0.983760000000     0.0326491  
C55      C      0.180030000000     0.310090000000     0.941200000000     0.0340431  
C56      C      0.145140000000     0.277410000000     0.011020000000     0.0330235  
C57      C      0.311530000000     0.181860000000     0.476260000000     0.0340043  
C58      C      0.285320000000     0.209710000000     0.478240000000     0.0327458  
C59      C      0.265750000000     0.190130000000     0.520660000000     0.0327896  
C60      C      0.292340000000     0.162650000000     0.519090000000     0.0339153  
C61      C      0.456860000000     0.299050000000     0.446830000000     0.0324621  
C62      C      0.472580000000     0.335930000000     0.373520000000     0.0329525  
C63      C      0.002290000000     0.350910000000     0.395450000000     0.0329398  
C64      C      0.986540000000     0.313720000000     0.468210000000     0.0319854  
C65      C      0.312060000000     0.299410000000     0.214200000000     0.0325425  
C66      C      0.332470000000     0.335650000000     0.288150000000     0.0330666  
C67      C      0.317550000000     0.350530000000     0.266410000000     0.0325414  
C68      C      0.296870000000     0.313990000000     0.192990000000     0.0323748  
C69      C      0.339800000000     0.181860000000     0.186060000000     0.0340511  
C70      C      0.393850000000     0.209980000000     0.182890000000     0.032776   
C71      C      0.393800000000     0.190440000000     0.140650000000     0.0327741  
C72      C      0.339730000000     0.162670000000     0.143410000000     0.0338139  
C73      C      0.342450000000     0.794220000000     0.284780000000     0.411451   
C74      C      0.421340000000     0.794110000000     0.376390000000     0.411373   
C75      C      0.327070000000     0.724110000000     0.414100000000     0.414423   
C76      C      0.366580000000     0.724190000000     0.247400000000     0.414775   
C77      C      0.283600000000     0.935410000000     0.128130000000     0.413644   
C78      C      0.283110000000     0.852460000000     0.200100000000     0.414364   
C79      C      0.210160000000     0.874890000000     0.246550000000     0.411889   
C80      C      0.210550000000     0.840620000000     0.081540000000     0.410289   
C81      C      0.421220000000     0.631570000000     0.950930000000     0.412029   
C82      C      0.342800000000     0.553260000000     0.043280000000     0.412069   
C83      C      0.366360000000     0.647810000000     0.079430000000     0.414431   
C84      C      0.326740000000     0.608080000000     0.914940000000     0.414897   
C85      C      0.039400000000     0.691500000000     0.866860000000     0.413888   
C86      C      0.121790000000     0.691600000000     0.795770000000     0.414118   
C87      C      0.100300000000     0.765400000000     0.749300000000     0.412036   
C88      C      0.134530000000     0.765180000000     0.913360000000     0.411495   
C89      C      0.179700000000     0.631500000000     0.711690000000     0.411621   
C90      C      0.179910000000     0.553120000000     0.619550000000     0.411472   
C91      C      0.250630000000     0.647620000000     0.582780000000     0.414124   
C92      C      0.250440000000     0.607920000000     0.747960000000     0.415026   
C93      C      0.121240000000     0.935720000000     0.534120000000     0.413653   
C94      C      0.038630000000     0.852710000000     0.461700000000     0.41449    
C95      C      0.133840000000     0.875410000000     0.415190000000     0.410623   
C96      C      0.099200000000     0.840940000000     0.580800000000     0.409909   
C97      C      0.138470000000     0.501720000000     0.623440000000     0.0331646  
C98      C      0.174250000000     0.517720000000     0.547860000000     0.0325365  
C99      C      0.159550000000     0.988000000000     0.526430000000     0.03237    
C100     C      0.123470000000     0.971970000000     0.601510000000     0.0324777  
C101     C      0.124320000000     0.657770000000     0.728300000000     0.0326097  
C102     C      0.158960000000     0.676210000000     0.804750000000     0.0323758  
C103     C      0.173440000000     0.660810000000     0.783690000000     0.0326294  
C104     C      0.139100000000     0.642640000000     0.706760000000     0.0331322  
C105     C      0.102300000000     0.778080000000     0.651630000000     0.0330144  
C106     C      0.098940000000     0.809980000000     0.721280000000     0.0341626  
C107     C      0.098840000000     0.829200000000     0.678640000000     0.032714   
C108     C      0.101740000000     0.797040000000     0.608990000000     0.0339708  
C109     C      0.456930000000     0.660700000000     0.878560000000     0.0326023  
C110     C      0.972910000000     0.642630000000     0.956190000000     0.0328549  
C111     C      0.002880000000     0.657730000000     0.934670000000     0.0329629  
C112     C      0.986860000000     0.676040000000     0.857480000000     0.0321494  
C113     C      0.311650000000     0.634750000000     0.852130000000     0.0338525  
C114     C      0.284520000000     0.580670000000     0.853060000000     0.0327278  
C115     C      0.265010000000     0.580630000000     0.811050000000     0.0328047  
C116     C      0.292480000000     0.634700000000     0.809730000000     0.0339684  
C117     C      0.164920000000     0.875100000000     0.274690000000     0.0341281  
C118     C      0.197740000000     0.873830000000     0.344330000000     0.0329401  
C119     C      0.178560000000     0.874230000000     0.387000000000     0.0341476  
C120     C      0.145500000000     0.875030000000     0.317360000000     0.0328302  
C121     C      0.298250000000     0.487800000000     0.136740000000     0.0323853  
C122     C      0.317500000000     0.971880000000     0.060390000000     0.0324412  
C123     C      0.332390000000     0.501750000000     0.038650000000     0.0334503  
C124     C      0.313400000000     0.517640000000     0.115460000000     0.0325715  
C125     C      0.164500000000     0.796370000000     0.053580000000     0.0339636  
C126     C      0.199170000000     0.829290000000     0.983760000000     0.0326759  
C127     C      0.180030000000     0.810090000000     0.941200000000     0.0340375  
C128     C      0.145140000000     0.777410000000     0.011020000000     0.033044   
C129     C      0.311530000000     0.681860000000     0.476260000000     0.0339986  
C130     C      0.285320000000     0.709710000000     0.478240000000     0.0327718  
C131     C      0.265750000000     0.690130000000     0.520660000000     0.0327895  
C132     C      0.292340000000     0.662650000000     0.519080000000     0.0339197  
C133     C      0.456860000000     0.799040000000     0.446830000000     0.0324034  
C134     C      0.472580000000     0.835930000000     0.373520000000     0.0329752  
C135     C      0.002290000000     0.850910000000     0.395450000000     0.0329729  
C136     C      0.986540000000     0.813720000000     0.468210000000     0.0319974  
C137     C      0.312060000000     0.799420000000     0.214190000000     0.0325165  
C138     C      0.332470000000     0.835650000000     0.288150000000     0.0330549  
C139     C      0.317560000000     0.850530000000     0.266410000000     0.0325124  
C140     C      0.296870000000     0.813990000000     0.192990000000     0.0323878  
C141     C      0.339800000000     0.681860000000     0.186050000000     0.0340376  
C142     C      0.393850000000     0.709980000000     0.182900000000     0.0327918  
C143     C      0.393800000000     0.690440000000     0.140650000000     0.0327631  
C144     C      0.339730000000     0.662670000000     0.143400000000     0.0338287  
C145     C      0.842450000000     0.294210000000     0.284780000000     0.411393   
C146     C      0.921340000000     0.294110000000     0.376390000000     0.411252   
C147     C      0.827070000000     0.224110000000     0.414100000000     0.414391   
C148     C      0.866580000000     0.224190000000     0.247390000000     0.414733   
C149     C      0.783600000000     0.435410000000     0.128130000000     0.413358   
C150     C      0.783110000000     0.352460000000     0.200100000000     0.414335   
C151     C      0.710160000000     0.374890000000     0.246550000000     0.411626   
C152     C      0.710550000000     0.340620000000     0.081540000000     0.410287   
C153     C      0.921220000000     0.131560000000     0.950930000000     0.412033   
C154     C      0.842810000000     0.053260000000     0.043280000000     0.411973   
C155     C      0.866360000000     0.147810000000     0.079420000000     0.414526   
C156     C      0.826740000000     0.108080000000     0.914940000000     0.414893   
C157     C      0.539400000000     0.191500000000     0.866860000000     0.413999   
C158     C      0.621790000000     0.191600000000     0.795770000000     0.41394    
C159     C      0.600300000000     0.265400000000     0.749300000000     0.411444   
C160     C      0.634530000000     0.265180000000     0.913350000000     0.411496   
C161     C      0.679700000000     0.131510000000     0.711690000000     0.411535   
C162     C      0.679910000000     0.053130000000     0.619550000000     0.411639   
C163     C      0.750630000000     0.147620000000     0.582780000000     0.413783   
C164     C      0.750430000000     0.107920000000     0.747960000000     0.415084   
C165     C      0.621230000000     0.435720000000     0.534120000000     0.413509   
C166     C      0.538630000000     0.352710000000     0.461710000000     0.414481   
C167     C      0.633840000000     0.375410000000     0.415190000000     0.410974   
C168     C      0.599200000000     0.340940000000     0.580790000000     0.409988   
C169     C      0.638470000000     0.001720000000     0.623440000000     0.0330481  
C170     C      0.674260000000     0.017720000000     0.547870000000     0.0325171  
C171     C      0.659550000000     0.488000000000     0.526430000000     0.0323168  
C172     C      0.623470000000     0.471970000000     0.601510000000     0.0324426  
C173     C      0.624320000000     0.157770000000     0.728300000000     0.0325272  
C174     C      0.658960000000     0.176210000000     0.804740000000     0.0324064  
C175     C      0.673440000000     0.160810000000     0.783690000000     0.0326216  
C176     C      0.639110000000     0.142640000000     0.706760000000     0.0332583  
C177     C      0.602290000000     0.278080000000     0.651630000000     0.0329943  
C178     C      0.598940000000     0.309980000000     0.721280000000     0.0341265  
C179     C      0.598840000000     0.329200000000     0.678640000000     0.0326716  
C180     C      0.601730000000     0.297040000000     0.608980000000     0.03398    
C181     C      0.956930000000     0.160690000000     0.878550000000     0.032629   
C182     C      0.472910000000     0.142630000000     0.956190000000     0.0333358  
C183     C      0.502880000000     0.157730000000     0.934670000000     0.0324594  
C184     C      0.486860000000     0.176050000000     0.857490000000     0.0324808  
C185     C      0.811650000000     0.134750000000     0.852130000000     0.0338488  
C186     C      0.784520000000     0.080670000000     0.853060000000     0.0327235  
C187     C      0.765000000000     0.080630000000     0.811060000000     0.0328024  
C188     C      0.792480000000     0.134700000000     0.809730000000     0.0339503  
C189     C      0.664920000000     0.375100000000     0.274690000000     0.034065   
C190     C      0.697740000000     0.373830000000     0.344330000000     0.0329715  
C191     C      0.678560000000     0.374230000000     0.387000000000     0.0341299  
C192     C      0.645500000000     0.375020000000     0.317360000000     0.0328728  
C193     C      0.798260000000     0.987800000000     0.136740000000     0.0324412  
C194     C      0.817500000000     0.471870000000     0.060390000000     0.0323673  
C195     C      0.832390000000     0.001750000000     0.038640000000     0.033324   
C196     C      0.813400000000     0.017640000000     0.115460000000     0.0325479  
C197     C      0.664500000000     0.296370000000     0.053580000000     0.0339573  
C198     C      0.699170000000     0.329290000000     0.983760000000     0.0326762  
C199     C      0.680030000000     0.310090000000     0.941200000000     0.0340185  
C200     C      0.645140000000     0.277410000000     0.011020000000     0.0330313  
C201     C      0.811530000000     0.181860000000     0.476260000000     0.0340012  
C202     C      0.785320000000     0.209710000000     0.478240000000     0.0327837  
C203     C      0.765750000000     0.190130000000     0.520660000000     0.0327395  
C204     C      0.792340000000     0.162650000000     0.519080000000     0.0338958  
C205     C      0.956860000000     0.299040000000     0.446820000000     0.0325086  
C206     C      0.972580000000     0.335930000000     0.373530000000     0.0325572  
C207     C      0.502290000000     0.350910000000     0.395450000000     0.0324821  
C208     C      0.486540000000     0.313730000000     0.468210000000     0.0323949  
C209     C      0.812060000000     0.299410000000     0.214190000000     0.0324637  
C210     C      0.832470000000     0.335650000000     0.288150000000     0.0330496  
C211     C      0.817550000000     0.350530000000     0.266410000000     0.0325381  
C212     C      0.796870000000     0.313990000000     0.192990000000     0.0324064  
C213     C      0.839800000000     0.181860000000     0.186050000000     0.034042   
C214     C      0.893850000000     0.209990000000     0.182890000000     0.0328005  
C215     C      0.893800000000     0.190440000000     0.140650000000     0.0327428  
C216     C      0.839730000000     0.162670000000     0.143400000000     0.0338122  
C217     C      0.842450000000     0.794210000000     0.284780000000     0.4114     
C218     C      0.921340000000     0.794110000000     0.376390000000     0.411471   
C219     C      0.827070000000     0.724110000000     0.414100000000     0.414441   
C220     C      0.866580000000     0.724190000000     0.247390000000     0.41473    
C221     C      0.783600000000     0.935410000000     0.128130000000     0.41364    
C222     C      0.783110000000     0.852460000000     0.200100000000     0.414363   
C223     C      0.710160000000     0.874890000000     0.246550000000     0.411886   
C224     C      0.710550000000     0.840620000000     0.081540000000     0.410283   
C225     C      0.921220000000     0.631560000000     0.950930000000     0.412201   
C226     C      0.842810000000     0.553260000000     0.043270000000     0.411918   
C227     C      0.866360000000     0.647810000000     0.079420000000     0.414484   
C228     C      0.826740000000     0.608080000000     0.914940000000     0.414907   
C229     C      0.539400000000     0.691500000000     0.866860000000     0.413739   
C230     C      0.621790000000     0.691600000000     0.795770000000     0.413875   
C231     C      0.600300000000     0.765400000000     0.749300000000     0.411433   
C232     C      0.634530000000     0.765180000000     0.913350000000     0.411499   
C233     C      0.679700000000     0.631510000000     0.711690000000     0.411754   
C234     C      0.679910000000     0.553130000000     0.619550000000     0.411505   
C235     C      0.750630000000     0.647620000000     0.582780000000     0.414128   
C236     C      0.750430000000     0.607920000000     0.747960000000     0.415074   
C237     C      0.621240000000     0.935720000000     0.534120000000     0.413851   
C238     C      0.538630000000     0.852710000000     0.461700000000     0.41446    
C239     C      0.633840000000     0.875410000000     0.415190000000     0.410618   
C240     C      0.599200000000     0.840940000000     0.580790000000     0.409991   
C241     C      0.638470000000     0.501730000000     0.623440000000     0.0331269  
C242     C      0.674250000000     0.517720000000     0.547860000000     0.0325263  
C243     C      0.659550000000     0.988000000000     0.526430000000     0.0323769  
C244     C      0.623470000000     0.971980000000     0.601510000000     0.0324141  
C245     C      0.624320000000     0.657770000000     0.728290000000     0.0324978  
C246     C      0.658960000000     0.676210000000     0.804740000000     0.0323923  
C247     C      0.673440000000     0.660810000000     0.783680000000     0.0326505  
C248     C      0.639100000000     0.642640000000     0.706760000000     0.0332328  
C249     C      0.602290000000     0.778070000000     0.651630000000     0.0329128  
C250     C      0.598940000000     0.809980000000     0.721280000000     0.0341232  
C251     C      0.598840000000     0.829200000000     0.678640000000     0.0326771  
C252     C      0.601730000000     0.797040000000     0.608980000000     0.0340326  
C253     C      0.956930000000     0.660690000000     0.878550000000     0.032635   
C254     C      0.472910000000     0.642630000000     0.956190000000     0.0333189  
C255     C      0.502880000000     0.657730000000     0.934670000000     0.0324623  
C256     C      0.486860000000     0.676050000000     0.857490000000     0.0324821  
C257     C      0.811650000000     0.634750000000     0.852130000000     0.0338531  
C258     C      0.784520000000     0.580670000000     0.853060000000     0.0327301  
C259     C      0.765010000000     0.580630000000     0.811050000000     0.0327865  
C260     C      0.792480000000     0.634700000000     0.809720000000     0.0339632  
C261     C      0.664920000000     0.875100000000     0.274690000000     0.034114   
C262     C      0.697740000000     0.873830000000     0.344330000000     0.032935   
C263     C      0.678560000000     0.874230000000     0.387000000000     0.034143   
C264     C      0.645500000000     0.875030000000     0.317360000000     0.0328328  
C265     C      0.798250000000     0.487800000000     0.136740000000     0.0323701  
C266     C      0.817500000000     0.971880000000     0.060390000000     0.0324308  
C267     C      0.832390000000     0.501750000000     0.038640000000     0.0333868  
C268     C      0.813400000000     0.517640000000     0.115460000000     0.0325719  
C269     C      0.664500000000     0.796370000000     0.053580000000     0.0339528  
C270     C      0.699180000000     0.829300000000     0.983760000000     0.0326016  
C271     C      0.680030000000     0.810090000000     0.941200000000     0.034058   
C272     C      0.645140000000     0.777410000000     0.011020000000     0.0330381  
C273     C      0.811530000000     0.681860000000     0.476250000000     0.0340027  
C274     C      0.785320000000     0.709710000000     0.478240000000     0.0327622  
C275     C      0.765750000000     0.690130000000     0.520650000000     0.0327723  
C276     C      0.792340000000     0.662650000000     0.519080000000     0.0339153  
C277     C      0.956860000000     0.799040000000     0.446820000000     0.0325109  
C278     C      0.972580000000     0.835930000000     0.373520000000     0.0325096  
C279     C      0.502290000000     0.850910000000     0.395450000000     0.0324822  
C280     C      0.486540000000     0.813730000000     0.468210000000     0.0324344  
C281     C      0.812060000000     0.799410000000     0.214190000000     0.0325014  
C282     C      0.832470000000     0.835650000000     0.288140000000     0.0330231  
C283     C      0.817560000000     0.850530000000     0.266400000000     0.0325486  
C284     C      0.796870000000     0.813990000000     0.192990000000     0.0323998  
C285     C      0.839800000000     0.681860000000     0.186050000000     0.0340412  
C286     C      0.893850000000     0.709980000000     0.182890000000     0.0327753  
C287     C      0.893800000000     0.690440000000     0.140650000000     0.0327366  
C288     C      0.839730000000     0.662670000000     0.143400000000     0.0338087  
H1       H      0.129530000000     0.006180000000     0.662060000000     0.043496   
H2       H      0.194280000000     0.035030000000     0.525240000000     0.0449648  
H3       H      0.168770000000     0.483620000000     0.488100000000     0.0439443  
H4       H      0.103530000000     0.454510000000     0.624090000000     0.0441317  
H5       H      0.105050000000     0.156080000000     0.705030000000     0.0441759  
H6       H      0.167670000000     0.189310000000     0.843490000000     0.0439287  
H7       H      0.192810000000     0.162730000000     0.806980000000     0.0448625  
H8       H      0.130690000000     0.129770000000     0.667710000000     0.0436812  
H9       H      0.103680000000     0.258110000000     0.639040000000     0.045056   
H10      H      0.097710000000     0.315890000000     0.765130000000     0.0444936  
H11      H      0.097460000000     0.349180000000     0.691190000000     0.0449336  
H12      H      0.102830000000     0.291030000000     0.565140000000     0.0449575  
H13      H      0.439540000000     0.162590000000     0.854980000000     0.0448776  
H14      H      0.468380000000     0.129830000000     0.995520000000     0.0436195  
H15      H      0.020410000000     0.156080000000     0.958240000000     0.0441462  
H16      H      0.991330000000     0.189080000000     0.818440000000     0.0439242  
H17      H      0.329760000000     0.156700000000     0.867120000000     0.0453799  
H18      H      0.280640000000     0.058830000000     0.869050000000     0.0434241  
H19      H      0.246820000000     0.058760000000     0.795980000000     0.0433505  
H20      H      0.296530000000     0.156620000000     0.793820000000     0.0454242  
H21      H      0.158690000000     0.375520000000     0.230840000000     0.044767   
H22      H      0.218160000000     0.373350000000     0.356890000000     0.0449055  
H23      H      0.184860000000     0.373930000000     0.430850000000     0.0448632  
H24      H      0.125070000000     0.375480000000     0.304820000000     0.0448812  
H25      H      0.284920000000     0.983330000000     0.175520000000     0.0439879  
H26      H      0.319600000000     0.454410000000     0.037250000000     0.0441983  
H27      H      0.345500000000     0.006290000000     0.999570000000     0.0434674  
H28      H      0.311060000000     0.034960000000     0.138640000000     0.0449308  
H29      H      0.157500000000     0.290050000000     0.097470000000     0.0448063  
H30      H      0.220320000000     0.349580000000     0.971100000000     0.0449683  
H31      H      0.187090000000     0.316330000000     0.897320000000     0.0444637  
H32      H      0.124000000000     0.257140000000     0.023710000000     0.0450887  
H33      H      0.329280000000     0.177680000000     0.459940000000     0.0456782  
H34      H      0.281820000000     0.228060000000     0.463260000000     0.0433321  
H35      H      0.247900000000     0.194130000000     0.537070000000     0.0434582  
H36      H      0.296010000000     0.144380000000     0.533960000000     0.0456021  
H37      H      0.439670000000     0.278590000000     0.468550000000     0.0449532  
H38      H      0.468030000000     0.345320000000     0.335840000000     0.0435151  
H39      H      0.019630000000     0.371300000000     0.373810000000     0.0439559  
H40      H      0.991020000000     0.304040000000     0.505590000000     0.0438152  
H41      H      0.309160000000     0.279250000000     0.192160000000     0.0449172  
H42      H      0.346170000000     0.344820000000     0.326040000000     0.0435489  
H43      H      0.320230000000     0.370620000000     0.288390000000     0.043999   
H44      H      0.282950000000     0.304540000000     0.155410000000     0.043867   
H45      H      0.317890000000     0.177550000000     0.202790000000     0.0456069  
H46      H      0.415720000000     0.228440000000     0.197330000000     0.0432752  
H47      H      0.415630000000     0.194570000000     0.123840000000     0.0434894  
H48      H      0.317780000000     0.144290000000     0.129080000000     0.0455088  
H49      H      0.129530000000     0.506180000000     0.662070000000     0.0434843  
H50      H      0.194280000000     0.535030000000     0.525230000000     0.0449477  
H51      H      0.168780000000     0.983620000000     0.488110000000     0.0439339  
H52      H      0.103520000000     0.954510000000     0.624090000000     0.0441022  
H53      H      0.105050000000     0.656080000000     0.705020000000     0.0441604  
H54      H      0.167670000000     0.689310000000     0.843490000000     0.0439347  
H55      H      0.192810000000     0.662730000000     0.806980000000     0.0448639  
H56      H      0.130690000000     0.629770000000     0.667710000000     0.0436918  
H57      H      0.103680000000     0.758110000000     0.639040000000     0.0450514  
H58      H      0.097710000000     0.815900000000     0.765130000000     0.0444645  
H59      H      0.097460000000     0.849180000000     0.691190000000     0.0449329  
H60      H      0.102830000000     0.791030000000     0.565140000000     0.0449543  
H61      H      0.439540000000     0.662590000000     0.854980000000     0.0448671  
H62      H      0.468380000000     0.629830000000     0.995520000000     0.0436258  
H63      H      0.020410000000     0.656080000000     0.958240000000     0.0441466  
H64      H      0.991330000000     0.689080000000     0.818440000000     0.0439238  
H65      H      0.329760000000     0.656700000000     0.867120000000     0.0453754  
H66      H      0.280640000000     0.558830000000     0.869040000000     0.0434228  
H67      H      0.246820000000     0.558760000000     0.795970000000     0.0433349  
H68      H      0.296530000000     0.656620000000     0.793820000000     0.0454148  
H69      H      0.158700000000     0.875530000000     0.230840000000     0.0447468  
H70      H      0.218150000000     0.873340000000     0.356890000000     0.0448998  
H71      H      0.184860000000     0.873920000000     0.430850000000     0.0448667  
H72      H      0.125070000000     0.875490000000     0.304820000000     0.0448894  
H73      H      0.284910000000     0.483330000000     0.175510000000     0.0440076  
H74      H      0.319600000000     0.954410000000     0.037240000000     0.0441735  
H75      H      0.345510000000     0.506290000000     0.999570000000     0.0434399  
H76      H      0.311060000000     0.534960000000     0.138630000000     0.0449357  
H77      H      0.157500000000     0.790050000000     0.097470000000     0.0448053  
H78      H      0.220320000000     0.849580000000     0.971100000000     0.0449602  
H79      H      0.187090000000     0.816330000000     0.897320000000     0.04446    
H80      H      0.124000000000     0.757140000000     0.023710000000     0.0450794  
H81      H      0.329280000000     0.677680000000     0.459940000000     0.045679   
H82      H      0.281820000000     0.728070000000     0.463260000000     0.0433274  
H83      H      0.247900000000     0.694130000000     0.537070000000     0.0434543  
H84      H      0.296010000000     0.644380000000     0.533950000000     0.0455972  
H85      H      0.439670000000     0.778590000000     0.468550000000     0.0449637  
H86      H      0.468030000000     0.845320000000     0.335830000000     0.0434992  
H87      H      0.019630000000     0.871300000000     0.373800000000     0.0439431  
H88      H      0.991020000000     0.804040000000     0.505590000000     0.0438134  
H89      H      0.309160000000     0.779250000000     0.192160000000     0.0449327  
H90      H      0.346180000000     0.844810000000     0.326040000000     0.0435689  
H91      H      0.320230000000     0.870620000000     0.288390000000     0.044014   
H92      H      0.282960000000     0.804540000000     0.155400000000     0.0438612  
H93      H      0.317890000000     0.677550000000     0.202790000000     0.0456142  
H94      H      0.415720000000     0.728440000000     0.197340000000     0.0432709  
H95      H      0.415630000000     0.694570000000     0.123840000000     0.0434841  
H96      H      0.317780000000     0.644290000000     0.129070000000     0.0455086  
H97      H      0.629530000000     0.006180000000     0.662060000000     0.0434831  
H98      H      0.694280000000     0.035030000000     0.525240000000     0.0449446  
H99      H      0.668770000000     0.483620000000     0.488100000000     0.0439468  
H100     H      0.603530000000     0.454510000000     0.624090000000     0.0440851  
H101     H      0.605050000000     0.156080000000     0.705030000000     0.0441549  
H102     H      0.667680000000     0.189310000000     0.843490000000     0.0439143  
H103     H      0.692810000000     0.162730000000     0.806980000000     0.0448464  
H104     H      0.630690000000     0.129770000000     0.667710000000     0.0436222  
H105     H      0.603680000000     0.258110000000     0.639040000000     0.0450367  
H106     H      0.597720000000     0.315900000000     0.765130000000     0.044464   
H107     H      0.597470000000     0.349180000000     0.691190000000     0.0449224  
H108     H      0.602820000000     0.291030000000     0.565140000000     0.0449273  
H109     H      0.939540000000     0.162580000000     0.854970000000     0.0448173  
H110     H      0.968380000000     0.129830000000     0.995530000000     0.0436414  
H111     H      0.520410000000     0.156080000000     0.958230000000     0.0441848  
H112     H      0.491330000000     0.189090000000     0.818450000000     0.0439784  
H113     H      0.829760000000     0.156700000000     0.867120000000     0.0453591  
H114     H      0.780630000000     0.058830000000     0.869050000000     0.0434076  
H115     H      0.746810000000     0.058760000000     0.795980000000     0.0433344  
H116     H      0.796530000000     0.156620000000     0.793820000000     0.0454111  
H117     H      0.658700000000     0.375530000000     0.230840000000     0.0447561  
H118     H      0.718160000000     0.373350000000     0.356890000000     0.0448919  
H119     H      0.684860000000     0.373930000000     0.430850000000     0.044866   
H120     H      0.625070000000     0.375480000000     0.304820000000     0.0448489  
H121     H      0.784920000000     0.983330000000     0.175520000000     0.0439791  
H122     H      0.819600000000     0.454410000000     0.037240000000     0.0441754  
H123     H      0.845500000000     0.006290000000     0.999560000000     0.0434501  
H124     H      0.811070000000     0.034960000000     0.138640000000     0.0449275  
H125     H      0.657500000000     0.290050000000     0.097470000000     0.04479    
H126     H      0.720320000000     0.349580000000     0.971100000000     0.0449552  
H127     H      0.687090000000     0.316330000000     0.897320000000     0.0444603  
H128     H      0.624000000000     0.257140000000     0.023710000000     0.0450578  
H129     H      0.829280000000     0.177680000000     0.459930000000     0.0456646  
H130     H      0.781820000000     0.228070000000     0.463260000000     0.0433154  
H131     H      0.747910000000     0.194130000000     0.537070000000     0.0434621  
H132     H      0.796010000000     0.144380000000     0.533950000000     0.0455987  
H133     H      0.939670000000     0.278580000000     0.468530000000     0.0448957  
H134     H      0.968030000000     0.345330000000     0.335840000000     0.0435064  
H135     H      0.519630000000     0.371290000000     0.373800000000     0.043986   
H136     H      0.491020000000     0.304050000000     0.505600000000     0.0438492  
H137     H      0.809150000000     0.279250000000     0.192160000000     0.0449233  
H138     H      0.846180000000     0.344820000000     0.326040000000     0.0435425  
H139     H      0.820230000000     0.370620000000     0.288390000000     0.0439801  
H140     H      0.782950000000     0.304540000000     0.155410000000     0.0438549  
H141     H      0.817890000000     0.177550000000     0.202790000000     0.0456037  
H142     H      0.915720000000     0.228450000000     0.197320000000     0.0432186  
H143     H      0.915630000000     0.194570000000     0.123830000000     0.0434543  
H144     H      0.817780000000     0.144290000000     0.129070000000     0.045504   
H145     H      0.629530000000     0.506180000000     0.662070000000     0.0434635  
H146     H      0.694280000000     0.535030000000     0.525230000000     0.0449475  
H147     H      0.668780000000     0.983620000000     0.488110000000     0.0439245  
H148     H      0.603520000000     0.954510000000     0.624080000000     0.0441002  
H149     H      0.605050000000     0.656090000000     0.705020000000     0.0441667  
H150     H      0.667680000000     0.689310000000     0.843490000000     0.0439176  
H151     H      0.692810000000     0.662740000000     0.806980000000     0.0448283  
H152     H      0.630680000000     0.629770000000     0.667710000000     0.0436248  
H153     H      0.603670000000     0.758110000000     0.639040000000     0.0450529  
H154     H      0.597720000000     0.815900000000     0.765130000000     0.0444653  
H155     H      0.597470000000     0.849180000000     0.691190000000     0.0449172  
H156     H      0.602820000000     0.791030000000     0.565140000000     0.0449155  
H157     H      0.939540000000     0.662580000000     0.854970000000     0.0448147  
H158     H      0.968380000000     0.629830000000     0.995530000000     0.0436407  
H159     H      0.520410000000     0.656080000000     0.958230000000     0.0441883  
H160     H      0.491330000000     0.689090000000     0.818450000000     0.0439801  
H161     H      0.829760000000     0.656700000000     0.867120000000     0.0453583  
H162     H      0.780640000000     0.558830000000     0.869040000000     0.0434144  
H163     H      0.746820000000     0.558760000000     0.795980000000     0.0433346  
H164     H      0.796530000000     0.656620000000     0.793810000000     0.0454111  
H165     H      0.658700000000     0.875530000000     0.230840000000     0.0447322  
H166     H      0.718150000000     0.873340000000     0.356890000000     0.0448948  
H167     H      0.684860000000     0.873920000000     0.430850000000     0.0448638  
H168     H      0.625070000000     0.875490000000     0.304810000000     0.0448583  
H169     H      0.784910000000     0.483330000000     0.175510000000     0.0440028  
H170     H      0.819600000000     0.954410000000     0.037240000000     0.0441596  
H171     H      0.845500000000     0.506290000000     0.999570000000     0.0434419  
H172     H      0.811060000000     0.534960000000     0.138630000000     0.0449299  
H173     H      0.657500000000     0.790050000000     0.097470000000     0.0447899  
H174     H      0.720310000000     0.849580000000     0.971100000000     0.0449662  
H175     H      0.687080000000     0.816330000000     0.897320000000     0.0444557  
H176     H      0.624000000000     0.757140000000     0.023710000000     0.0450567  
H177     H      0.829280000000     0.677680000000     0.459930000000     0.0456632  
H178     H      0.781820000000     0.728070000000     0.463260000000     0.0433199  
H179     H      0.747910000000     0.694140000000     0.537070000000     0.0434474  
H180     H      0.796010000000     0.644380000000     0.533950000000     0.0455903  
H181     H      0.939670000000     0.778580000000     0.468530000000     0.0448926  
H182     H      0.968030000000     0.845320000000     0.335840000000     0.0435173  
H183     H      0.519630000000     0.871290000000     0.373790000000     0.0439799  
H184     H      0.491020000000     0.804050000000     0.505600000000     0.0438384  
H185     H      0.809160000000     0.779250000000     0.192150000000     0.0449196  
H186     H      0.846180000000     0.844810000000     0.326040000000     0.0435576  
H187     H      0.820240000000     0.870620000000     0.288390000000     0.0439752  
H188     H      0.782960000000     0.804540000000     0.155400000000     0.0438489  
H189     H      0.817890000000     0.677550000000     0.202790000000     0.0456045  
H190     H      0.915720000000     0.728440000000     0.197320000000     0.0432255  
H191     H      0.915630000000     0.694570000000     0.123830000000     0.0434511  
H192     H      0.817780000000     0.644290000000     0.129070000000     0.0455079  
In1      In     0.365010000000     0.260380000000     0.330630000000     2.40968    
In2      In     0.248510000000     0.376580000000     0.164070000000     2.39914    
In3      In     0.364760000000     0.109620000000     0.997080000000     2.41149    
In4      In     0.098310000000     0.226950000000     0.831350000000     2.40166    
In5      In     0.214020000000     0.109390000000     0.665610000000     2.41071    
In6      In     0.097280000000     0.377030000000     0.497950000000     2.39762    
In7      In     0.365010000000     0.760380000000     0.330630000000     2.40981    
In8      In     0.248520000000     0.876580000000     0.164070000000     2.39924    
In9      In     0.364760000000     0.609620000000     0.997080000000     2.41183    
In10     In     0.098310000000     0.726950000000     0.831350000000     2.40178    
In11     In     0.214020000000     0.609390000000     0.665600000000     2.41102    
In12     In     0.097280000000     0.877040000000     0.497940000000     2.39747    
In13     In     0.865010000000     0.260380000000     0.330620000000     2.40976    
In14     In     0.748510000000     0.376580000000     0.164070000000     2.39892    
In15     In     0.864760000000     0.109620000000     0.997080000000     2.41143    
In16     In     0.598310000000     0.226950000000     0.831350000000     2.40127    
In17     In     0.714020000000     0.109390000000     0.665600000000     2.41067    
In18     In     0.597280000000     0.377040000000     0.497940000000     2.39764    
In19     In     0.865010000000     0.760380000000     0.330620000000     2.4098     
In20     In     0.748520000000     0.876580000000     0.164070000000     2.39923    
In21     In     0.864760000000     0.609620000000     0.997080000000     2.41148    
In22     In     0.598310000000     0.726950000000     0.831350000000     2.40136    
In23     In     0.714030000000     0.609390000000     0.665600000000     2.41084    
In24     In     0.597280000000     0.877040000000     0.497940000000     2.39734    
N1       N      0.164060000000     0.024370000000     0.596910000000    -0.176554   
N2       N      0.134470000000     0.465130000000     0.553720000000    -0.177562   
N3       N      0.134740000000     0.175020000000     0.776570000000    -0.17764    
N4       N      0.163900000000     0.144610000000     0.734140000000    -0.176443   
N5       N      0.100620000000     0.284460000000     0.707610000000    -0.17556    
N6       N      0.099970000000     0.322510000000     0.622640000000    -0.175177   
N7       N      0.450170000000     0.144590000000     0.928470000000    -0.176429   
N8       N      0.009820000000     0.174910000000     0.886040000000    -0.177468   
N9       N      0.307700000000     0.107760000000     0.873540000000    -0.176754   
N10      N      0.269170000000     0.107670000000     0.789440000000    -0.17665    
N11      N      0.190990000000     0.374520000000     0.288340000000    -0.175382   
N12      N      0.152520000000     0.374840000000     0.373370000000    -0.175379   
N13      N      0.299970000000     0.464920000000     0.108720000000    -0.177565   
N14      N      0.329890000000     0.024400000000     0.065870000000    -0.176521   
N15      N      0.191470000000     0.322220000000     0.039810000000    -0.175243   
N16      N      0.153100000000     0.284190000000     0.954990000000    -0.175541   
N17      N      0.308040000000     0.205380000000     0.456070000000    -0.176612   
N18      N      0.269440000000     0.166750000000     0.541010000000    -0.176524   
N19      N      0.450080000000     0.309830000000     0.398950000000    -0.176394   
N20      N      0.009260000000     0.339380000000     0.442090000000    -0.177579   
N21      N      0.329320000000     0.309910000000     0.262320000000    -0.176417   
N22      N      0.299340000000     0.339260000000     0.219540000000    -0.177703   
N23      N      0.366830000000     0.205500000000     0.205580000000    -0.176715   
N24      N      0.366710000000     0.166920000000     0.120990000000    -0.176671   
N25      N      0.164050000000     0.524370000000     0.596900000000    -0.17654    
N26      N      0.134470000000     0.965130000000     0.553720000000    -0.177587   
N27      N      0.134740000000     0.675020000000     0.776560000000    -0.177632   
N28      N      0.163900000000     0.644610000000     0.734140000000    -0.176394   
N29      N      0.100620000000     0.784460000000     0.707610000000    -0.175601   
N30      N      0.099970000000     0.822510000000     0.622640000000    -0.175189   
N31      N      0.450170000000     0.644590000000     0.928460000000    -0.176439   
N32      N      0.009820000000     0.674910000000     0.886040000000    -0.17747    
N33      N      0.307700000000     0.607760000000     0.873540000000    -0.176784   
N34      N      0.269170000000     0.607670000000     0.789430000000    -0.176778   
N35      N      0.190990000000     0.874520000000     0.288330000000    -0.175526   
N36      N      0.152520000000     0.874840000000     0.373360000000    -0.175274   
N37      N      0.299970000000     0.964920000000     0.108720000000    -0.177618   
N38      N      0.329890000000     0.524400000000     0.065860000000    -0.176584   
N39      N      0.191470000000     0.822220000000     0.039810000000    -0.175252   
N40      N      0.153100000000     0.784190000000     0.954990000000    -0.175627   
N41      N      0.308040000000     0.705380000000     0.456070000000    -0.176616   
N42      N      0.269440000000     0.666750000000     0.541010000000    -0.176589   
N43      N      0.450080000000     0.809830000000     0.398950000000    -0.176473   
N44      N      0.009260000000     0.839380000000     0.442090000000    -0.1776     
N45      N      0.329330000000     0.809910000000     0.262320000000    -0.176496   
N46      N      0.299340000000     0.839260000000     0.219540000000    -0.17771    
N47      N      0.366830000000     0.705500000000     0.205580000000    -0.176717   
N48      N      0.366710000000     0.666920000000     0.120990000000    -0.176662   
N49      N      0.664060000000     0.024370000000     0.596900000000    -0.176486   
N50      N      0.634460000000     0.465130000000     0.553710000000    -0.177567   
N51      N      0.634740000000     0.175020000000     0.776560000000    -0.177596   
N52      N      0.663900000000     0.144620000000     0.734140000000    -0.176444   
N53      N      0.600620000000     0.284460000000     0.707610000000    -0.175501   
N54      N      0.599970000000     0.322510000000     0.622630000000    -0.175204   
N55      N      0.950170000000     0.144590000000     0.928460000000    -0.176421   
N56      N      0.509820000000     0.174910000000     0.886040000000    -0.177624   
N57      N      0.807700000000     0.107760000000     0.873540000000    -0.176788   
N58      N      0.769170000000     0.107670000000     0.789430000000    -0.176722   
N59      N      0.690990000000     0.374520000000     0.288340000000    -0.175448   
N60      N      0.652520000000     0.374840000000     0.373360000000    -0.175353   
N61      N      0.799970000000     0.464920000000     0.108720000000    -0.177536   
N62      N      0.829890000000     0.024400000000     0.065870000000    -0.176537   
N63      N      0.691470000000     0.322220000000     0.039810000000    -0.175253   
N64      N      0.653100000000     0.284190000000     0.954990000000    -0.175597   
N65      N      0.808040000000     0.205380000000     0.456070000000    -0.176623   
N66      N      0.769440000000     0.166750000000     0.541010000000    -0.176514   
N67      N      0.950080000000     0.309830000000     0.398950000000    -0.176457   
N68      N      0.509260000000     0.339380000000     0.442090000000    -0.177742   
N69      N      0.829320000000     0.309910000000     0.262320000000    -0.176348   
N70      N      0.799340000000     0.339260000000     0.219540000000    -0.177729   
N71      N      0.866830000000     0.205500000000     0.205570000000    -0.176731   
N72      N      0.866710000000     0.166920000000     0.120990000000    -0.176645   
N73      N      0.664050000000     0.524370000000     0.596900000000    -0.176478   
N74      N      0.634470000000     0.965130000000     0.553710000000    -0.177621   
N75      N      0.634740000000     0.675020000000     0.776560000000    -0.177577   
N76      N      0.663900000000     0.644620000000     0.734130000000    -0.176485   
N77      N      0.600620000000     0.784460000000     0.707610000000    -0.175477   
N78      N      0.599970000000     0.822510000000     0.622630000000    -0.175214   
N79      N      0.950170000000     0.644590000000     0.928460000000    -0.176453   
N80      N      0.509820000000     0.674910000000     0.886040000000    -0.177576   
N81      N      0.807700000000     0.607760000000     0.873530000000    -0.176768   
N82      N      0.769170000000     0.607670000000     0.789430000000    -0.176718   
N83      N      0.690990000000     0.874520000000     0.288330000000    -0.175527   
N84      N      0.652520000000     0.874840000000     0.373360000000    -0.175277   
N85      N      0.799970000000     0.964920000000     0.108720000000    -0.177622   
N86      N      0.829890000000     0.524400000000     0.065860000000    -0.176532   
N87      N      0.691470000000     0.822220000000     0.039810000000    -0.175234   
N88      N      0.653100000000     0.784190000000     0.954990000000    -0.175605   
N89      N      0.808040000000     0.705380000000     0.456060000000    -0.176652   
N90      N      0.769440000000     0.666750000000     0.541010000000    -0.176584   
N91      N      0.950080000000     0.809830000000     0.398950000000    -0.176486   
N92      N      0.509260000000     0.839380000000     0.442090000000    -0.17776    
N93      N      0.829320000000     0.809910000000     0.262310000000    -0.176347   
N94      N      0.799340000000     0.839260000000     0.219540000000    -0.177728   
N95      N      0.866830000000     0.705500000000     0.205570000000    -0.17672    
N96      N      0.866710000000     0.666920000000     0.120980000000    -0.176662   
O1       O      0.390560000000     0.247380000000     0.265200000000    -0.49696    
O2       O      0.342180000000     0.219580000000     0.271410000000    -0.495399   
O3       O      0.414090000000     0.301580000000     0.330220000000    -0.491479   
O4       O      0.356820000000     0.301360000000     0.331230000000    -0.491343   
O5       O      0.347020000000     0.219620000000     0.390530000000    -0.495135   
O6       O      0.340100000000     0.270580000000     0.261650000000    -0.504576   
O7       O      0.400120000000     0.270180000000     0.399250000000    -0.504512   
O8       O      0.326190000000     0.247210000000     0.395730000000    -0.496422   
O9       O      0.234950000000     0.365480000000     0.071030000000    -0.490795   
O10      O      0.205330000000     0.333990000000     0.133730000000    -0.489366   
O11      O      0.285080000000     0.376300000000     0.221560000000    -0.493763   
O12      O      0.265180000000     0.427740000000     0.169470000000    -0.50561    
O13      O      0.233690000000     0.372900000000     0.256920000000    -0.492453   
O14      O      0.284760000000     0.413420000000     0.105090000000    -0.492674   
O15      O      0.264100000000     0.341170000000     0.160280000000    -0.506182   
O16      O      0.205950000000     0.377590000000     0.194490000000    -0.48893    
O17      O      0.325340000000     0.084040000000     0.934350000000    -0.497184   
O18      O      0.347260000000     0.132580000000     0.936860000000    -0.496387   
O19      O      0.356470000000     0.060470000000     0.995720000000    -0.492889   
O20      O      0.414030000000     0.118310000000     0.998780000000    -0.492684   
O21      O      0.341820000000     0.126990000000     0.058200000000    -0.495718   
O22      O      0.399820000000     0.133060000000     0.926450000000    -0.504321   
O23      O      0.340870000000     0.074580000000     0.067390000000    -0.503948   
O24      O      0.390410000000     0.149440000000     0.059210000000    -0.496481   
O25      O      0.108840000000     0.241760000000     0.923910000000    -0.492158   
O26      O      0.141840000000     0.269370000000     0.861300000000    -0.491017   
O27      O      0.098950000000     0.190850000000     0.772600000000    -0.493679   
O28      O      0.061460000000     0.190870000000     0.890460000000    -0.493513   
O29      O      0.096690000000     0.269170000000     0.801290000000    -0.490801   
O30      O      0.047040000000     0.209600000000     0.825170000000    -0.505346   
O31      O      0.132410000000     0.209780000000     0.837060000000    -0.505712   
O32      O      0.103120000000     0.242330000000     0.738860000000    -0.49264    
O33      O      0.227560000000     0.083870000000     0.729500000000    -0.497018   
O34      O      0.254670000000     0.132360000000     0.725010000000    -0.496028   
O35      O      0.173000000000     0.060250000000     0.666640000000    -0.492381   
O36      O      0.202630000000     0.132960000000     0.735950000000    -0.504638   
O37      O      0.254500000000     0.126960000000     0.604650000000    -0.494849   
O38      O      0.173490000000     0.118180000000     0.664090000000    -0.492362   
O39      O      0.203480000000     0.074450000000     0.595910000000    -0.504248   
O40      O      0.228030000000     0.149070000000     0.602600000000    -0.495877   
O41      O      0.099130000000     0.365520000000     0.591170000000    -0.490516   
O42      O      0.098280000000     0.334630000000     0.528630000000    -0.488249   
O43      O      0.060410000000     0.376870000000     0.440630000000    -0.493515   
O44      O      0.097630000000     0.413760000000     0.556410000000    -0.49271    
O45      O      0.140400000000     0.377240000000     0.467300000000    -0.488274   
O46      O      0.132320000000     0.428110000000     0.493360000000    -0.505758   
O47      O      0.046380000000     0.341230000000     0.501290000000    -0.506371   
O48      O      0.108760000000     0.374380000000     0.404860000000    -0.491897   
O49      O      0.390560000000     0.747380000000     0.265200000000    -0.496964   
O50      O      0.342180000000     0.719580000000     0.271410000000    -0.495411   
O51      O      0.414090000000     0.801570000000     0.330220000000    -0.491664   
O52      O      0.356820000000     0.801360000000     0.331230000000    -0.491391   
O53      O      0.347020000000     0.719620000000     0.390530000000    -0.49515    
O54      O      0.340100000000     0.770580000000     0.261650000000    -0.504569   
O55      O      0.400120000000     0.770180000000     0.399250000000    -0.50449    
O56      O      0.326190000000     0.747210000000     0.395730000000    -0.496429   
O57      O      0.234950000000     0.865480000000     0.071030000000    -0.490775   
O58      O      0.205330000000     0.833990000000     0.133730000000    -0.489283   
O59      O      0.285080000000     0.876300000000     0.221560000000    -0.493979   
O60      O      0.265190000000     0.927740000000     0.169480000000    -0.505655   
O61      O      0.233680000000     0.872900000000     0.256920000000    -0.49263    
O62      O      0.284760000000     0.913420000000     0.105090000000    -0.492793   
O63      O      0.264110000000     0.841170000000     0.160280000000    -0.506316   
O64      O      0.205960000000     0.877590000000     0.194490000000    -0.489118   
O65      O      0.325340000000     0.584040000000     0.934350000000    -0.497192   
O66      O      0.347260000000     0.632580000000     0.936860000000    -0.496389   
O67      O      0.356470000000     0.560470000000     0.995720000000    -0.4929     
O68      O      0.414030000000     0.618310000000     0.998770000000    -0.492782   
O69      O      0.341820000000     0.626990000000     0.058200000000    -0.495689   
O70      O      0.399820000000     0.633060000000     0.926450000000    -0.504386   
O71      O      0.340870000000     0.574580000000     0.067380000000    -0.504176   
O72      O      0.390410000000     0.649430000000     0.059200000000    -0.496556   
O73      O      0.108840000000     0.741770000000     0.923910000000    -0.492173   
O74      O      0.141840000000     0.769370000000     0.861300000000    -0.490977   
O75      O      0.098950000000     0.690850000000     0.772600000000    -0.493684   
O76      O      0.061460000000     0.690870000000     0.890460000000    -0.493542   
O77      O      0.096700000000     0.769170000000     0.801290000000    -0.490965   
O78      O      0.047040000000     0.709600000000     0.825170000000    -0.505366   
O79      O      0.132410000000     0.709780000000     0.837060000000    -0.505726   
O80      O      0.103120000000     0.742330000000     0.738860000000    -0.492677   
O81      O      0.227560000000     0.583880000000     0.729490000000    -0.497159   
O82      O      0.254670000000     0.632360000000     0.725010000000    -0.496136   
O83      O      0.173000000000     0.560250000000     0.666640000000    -0.49241    
O84      O      0.202630000000     0.632960000000     0.735950000000    -0.504516   
O85      O      0.254490000000     0.626960000000     0.604640000000    -0.495201   
O86      O      0.173490000000     0.618180000000     0.664080000000    -0.492356   
O87      O      0.203480000000     0.574450000000     0.595900000000    -0.504117   
O88      O      0.228030000000     0.649070000000     0.602600000000    -0.496044   
O89      O      0.099130000000     0.865520000000     0.591160000000    -0.490491   
O90      O      0.098280000000     0.834630000000     0.528630000000    -0.488044   
O91      O      0.060410000000     0.876870000000     0.440630000000    -0.493658   
O92      O      0.097630000000     0.913760000000     0.556410000000    -0.492724   
O93      O      0.140400000000     0.877230000000     0.467300000000    -0.488009   
O94      O      0.132320000000     0.928110000000     0.493360000000    -0.505997   
O95      O      0.046380000000     0.841230000000     0.501290000000    -0.506253   
O96      O      0.108760000000     0.874390000000     0.404850000000    -0.491722   
O97      O      0.890560000000     0.247380000000     0.265190000000    -0.497001   
O98      O      0.842180000000     0.219580000000     0.271410000000    -0.495429   
O99      O      0.914090000000     0.301580000000     0.330220000000    -0.491546   
O100     O      0.856820000000     0.301360000000     0.331230000000    -0.491365   
O101     O      0.847020000000     0.219620000000     0.390530000000    -0.495088   
O102     O      0.840100000000     0.270580000000     0.261650000000    -0.50474    
O103     O      0.900120000000     0.270180000000     0.399240000000    -0.504516   
O104     O      0.826190000000     0.247210000000     0.395720000000    -0.496395   
O105     O      0.734950000000     0.365480000000     0.071030000000    -0.490789   
O106     O      0.705330000000     0.333990000000     0.133730000000    -0.489371   
O107     O      0.785080000000     0.376300000000     0.221560000000    -0.493815   
O108     O      0.765180000000     0.427740000000     0.169480000000    -0.505501   
O109     O      0.733680000000     0.372900000000     0.256920000000    -0.492615   
O110     O      0.784760000000     0.413420000000     0.105090000000    -0.492626   
O111     O      0.764110000000     0.341170000000     0.160280000000    -0.506149   
O112     O      0.705950000000     0.377590000000     0.194490000000    -0.489014   
O113     O      0.825340000000     0.084040000000     0.934350000000    -0.497183   
O114     O      0.847260000000     0.132580000000     0.936860000000    -0.496372   
O115     O      0.856470000000     0.060460000000     0.995720000000    -0.492752   
O116     O      0.914030000000     0.118310000000     0.998780000000    -0.492797   
O117     O      0.841820000000     0.126990000000     0.058200000000    -0.495739   
O118     O      0.899820000000     0.133050000000     0.926450000000    -0.504407   
O119     O      0.840880000000     0.074580000000     0.067390000000    -0.504095   
O120     O      0.890410000000     0.149440000000     0.059200000000    -0.496545   
O121     O      0.608840000000     0.241770000000     0.923910000000    -0.492154   
O122     O      0.641840000000     0.269370000000     0.861300000000    -0.491026   
O123     O      0.598950000000     0.190850000000     0.772600000000    -0.493638   
O124     O      0.561460000000     0.190870000000     0.890460000000    -0.493568   
O125     O      0.596700000000     0.269180000000     0.801290000000    -0.490594   
O126     O      0.547040000000     0.209600000000     0.825180000000    -0.505518   
O127     O      0.632420000000     0.209780000000     0.837060000000    -0.505461   
O128     O      0.603120000000     0.242320000000     0.738860000000    -0.492446   
O129     O      0.727560000000     0.083880000000     0.729500000000    -0.497167   
O130     O      0.754670000000     0.132360000000     0.725010000000    -0.496182   
O131     O      0.673000000000     0.060250000000     0.666640000000    -0.492504   
O132     O      0.702630000000     0.132960000000     0.735950000000    -0.504437   
O133     O      0.754500000000     0.126960000000     0.604640000000    -0.494875   
O134     O      0.673490000000     0.118190000000     0.664080000000    -0.492216   
O135     O      0.703480000000     0.074450000000     0.595910000000    -0.5043     
O136     O      0.728030000000     0.149070000000     0.602600000000    -0.495956   
O137     O      0.599140000000     0.365520000000     0.591160000000    -0.490564   
O138     O      0.598280000000     0.334630000000     0.528620000000    -0.488125   
O139     O      0.560410000000     0.376870000000     0.440630000000    -0.493681   
O140     O      0.597630000000     0.413760000000     0.556410000000    -0.492813   
O141     O      0.640400000000     0.377240000000     0.467300000000    -0.488188   
O142     O      0.632320000000     0.428110000000     0.493350000000    -0.505834   
O143     O      0.546380000000     0.341230000000     0.501290000000    -0.50642    
O144     O      0.608760000000     0.374380000000     0.404860000000    -0.491952   
O145     O      0.890560000000     0.747380000000     0.265190000000    -0.496978   
O146     O      0.842180000000     0.719580000000     0.271410000000    -0.495436   
O147     O      0.914090000000     0.801570000000     0.330220000000    -0.49172    
O148     O      0.856820000000     0.801360000000     0.331220000000    -0.491446   
O149     O      0.847020000000     0.719620000000     0.390530000000    -0.495102   
O150     O      0.840100000000     0.770580000000     0.261640000000    -0.504657   
O151     O      0.900120000000     0.770180000000     0.399240000000    -0.504565   
O152     O      0.826190000000     0.747210000000     0.395720000000    -0.496423   
O153     O      0.734950000000     0.865480000000     0.071030000000    -0.490776   
O154     O      0.705330000000     0.833990000000     0.133730000000    -0.489288   
O155     O      0.785080000000     0.876300000000     0.221560000000    -0.493987   
O156     O      0.765190000000     0.927740000000     0.169480000000    -0.50566    
O157     O      0.733680000000     0.872900000000     0.256920000000    -0.492633   
O158     O      0.784760000000     0.913420000000     0.105090000000    -0.492802   
O159     O      0.764110000000     0.841170000000     0.160280000000    -0.506322   
O160     O      0.705960000000     0.877590000000     0.194490000000    -0.489125   
O161     O      0.825340000000     0.584040000000     0.934340000000    -0.497158   
O162     O      0.847260000000     0.632580000000     0.936850000000    -0.496362   
O163     O      0.856470000000     0.560460000000     0.995720000000    -0.492789   
O164     O      0.914030000000     0.618310000000     0.998770000000    -0.492885   
O165     O      0.841820000000     0.626990000000     0.058200000000    -0.495721   
O166     O      0.899820000000     0.633050000000     0.926450000000    -0.50445    
O167     O      0.840870000000     0.574580000000     0.067380000000    -0.504046   
O168     O      0.890410000000     0.649430000000     0.059200000000    -0.496593   
O169     O      0.608840000000     0.741770000000     0.923910000000    -0.492163   
O170     O      0.641840000000     0.769370000000     0.861300000000    -0.491034   
O171     O      0.598950000000     0.690860000000     0.772600000000    -0.493714   
O172     O      0.561460000000     0.690870000000     0.890460000000    -0.493516   
O173     O      0.596700000000     0.769180000000     0.801290000000    -0.490592   
O174     O      0.547040000000     0.709610000000     0.825180000000    -0.505342   
O175     O      0.632420000000     0.709780000000     0.837060000000    -0.505433   
O176     O      0.603120000000     0.742320000000     0.738860000000    -0.492424   
O177     O      0.727560000000     0.583880000000     0.729490000000    -0.497328   
O178     O      0.754670000000     0.632360000000     0.725010000000    -0.496312   
O179     O      0.673000000000     0.560250000000     0.666640000000    -0.492421   
O180     O      0.702630000000     0.632970000000     0.735940000000    -0.504443   
O181     O      0.754490000000     0.626960000000     0.604640000000    -0.495322   
O182     O      0.673490000000     0.618190000000     0.664080000000    -0.492099   
O183     O      0.703480000000     0.574450000000     0.595900000000    -0.504196   
O184     O      0.728030000000     0.649070000000     0.602600000000    -0.495994   
O185     O      0.599140000000     0.865520000000     0.591160000000    -0.490574   
O186     O      0.598280000000     0.834630000000     0.528620000000    -0.488108   
O187     O      0.560410000000     0.876870000000     0.440630000000    -0.493668   
O188     O      0.597630000000     0.913770000000     0.556400000000    -0.492804   
O189     O      0.640400000000     0.877230000000     0.467300000000    -0.487986   
O190     O      0.632320000000     0.928110000000     0.493360000000    -0.506051   
O191     O      0.546380000000     0.841230000000     0.501290000000    -0.506348   
O192     O      0.608760000000     0.874390000000     0.404850000000    -0.491724   


