data_structure

_audit_creation_method RASPA-1.0
_audit_creation_date 2023-6-5
_audit_author_name 'Poobodin Mano'

_cell_length_a    31.7404
_cell_length_b    30.1794
_cell_length_c    35.0419
_cell_angle_alpha 89.5511
_cell_angle_beta  90.4489
_cell_angle_gamma 89.999
_cell_volume      33564.8

_symmetry_cell_setting          triclinic
_symmetry_space_group_name_Hall 'P 1'
_symmetry_space_group_name_H-M  'P 1'
_symmetry_Int_Tables_number     1

_symmetry_equiv_pos_as_xyz 'x,y,z'

loop_
_atom_site_label
_atom_site_type_symbol
_atom_site_fract_x
_atom_site_fract_y
_atom_site_fract_z
_atom_site_charge
C1       C      0.323300000000     0.434630000000     0.977930000000     0.413974   
C2       C      0.283160000000     0.308350000000     0.415670000000     0.410005   
C3       C      0.405820000000     0.327390000000     0.472830000000     0.421666   
C4       C      0.282590000000     0.311770000000     0.038840000000     0.419226   
C5       C      0.323420000000     0.617670000000     0.482540000000     0.417857   
C6       C      0.287210000000     0.742790000000     0.035750000000     0.416193   
C7       C      0.412200000000     0.726510000000     0.977690000000     0.418677   
C8       C      0.293760000000     0.740370000000     0.411250000000     0.417249   
C9       C      0.579330000000     0.324050000000     0.973620000000     0.415834   
C10      C      0.703620000000     0.307210000000     0.413420000000     0.414859   
C11      C      0.670070000000     0.429110000000     0.472020000000     0.415289   
C12      C      0.698710000000     0.301180000000     0.037500000000     0.418358   
C13      C      0.674860000000     0.612250000000     0.970810000000     0.419127   
C14      C      0.710230000000     0.735680000000     0.415310000000     0.415658   
C15      C      0.585430000000     0.720130000000     0.477250000000     0.41526    
C16      C      0.708170000000     0.737830000000     0.037040000000     0.415839   
C17      C      0.823020000000     0.113130000000     0.230450000000     0.412233   
C18      C      0.784200000000     0.239170000000     0.287290000000     0.417391   
C19      C      0.907280000000     0.221040000000     0.228030000000     0.41826    
C20      C      0.785910000000     0.235240000000     0.162990000000     0.417138   
C21      C      0.910320000000     0.816660000000     0.226080000000     0.424308   
C22      C      0.792280000000     0.806090000000     0.290260000000     0.416381   
C23      C      0.826480000000     0.929770000000     0.228530000000     0.420453   
C24      C      0.788290000000     0.807180000000     0.164120000000     0.415922   
C25      C      0.083400000000     0.820410000000     0.226330000000     0.414789   
C26      C      0.206450000000     0.811950000000     0.161410000000     0.416247   
C27      C      0.169500000000     0.931260000000     0.217970000000     0.422499   
C28      C      0.206290000000     0.805500000000     0.285480000000     0.413079   
C29      C      0.080920000000     0.221430000000     0.227360000000     0.417916   
C30      C      0.204110000000     0.235750000000     0.289380000000     0.415556   
C31      C      0.165000000000     0.114190000000     0.223570000000     0.413808   
C32      C      0.206460000000     0.243070000000     0.167870000000     0.422303   
C33      C      0.191100000000     0.045020000000     0.245980000000     0.0404916  
C34      C      0.144240000000     0.047330000000     0.193500000000     0.0610898  
C35      C      0.193140000000     0.999020000000     0.243330000000     0.0325778  
C36      C      0.146230000000     0.000950000000     0.190390000000    -0.00565753 
C37      C      0.125230000000     0.980780000000     0.156670000000     0.309628   
C38      C      0.018870000000     0.817200000000     0.259870000000     0.040947   
C39      C      0.019530000000     0.803830000000     0.193730000000     0.0638552  
C40      C      0.975030000000     0.815160000000     0.259520000000     0.0371981  
C41      C      0.975310000000     0.800650000000     0.193200000000    -0.00186236 
C42      C      0.954850000000     0.785260000000     0.157370000000     0.311093   
C43      C      0.787770000000     0.043770000000     0.225720000000     0.0414357  
C44      C      0.861400000000     0.046010000000     0.234520000000     0.0629779  
C45      C      0.789310000000     0.997540000000     0.224470000000     0.0344104  
C46      C      0.863500000000     0.999690000000     0.232400000000    -0.0043594  
C47      C      0.906380000000     0.980050000000     0.231510000000     0.310305   
C48      C      0.972750000000     0.216540000000     0.260690000000     0.0438114  
C49      C      0.970950000000     0.239840000000     0.196390000000     0.0633065  
C50      C      0.016590000000     0.217240000000     0.260280000000     0.0335681  
C51      C      0.015260000000     0.242130000000     0.196030000000    -0.0039931  
C52      C      0.035140000000     0.262360000000     0.161830000000     0.31072    
C53      C      0.720200000000     0.793380000000     0.369970000000     0.0414179  
C54      C      0.764800000000     0.730950000000     0.369680000000     0.0616033  
C55      C      0.741760000000     0.811180000000     0.338970000000     0.0327904  
C56      C      0.787410000000     0.749030000000     0.339010000000    -0.00401459 
C57      C      0.826500000000     0.725460000000     0.327980000000     0.308904   
C58      C      0.743860000000     0.753620000000     0.135200000000     0.0408056  
C59      C      0.774590000000     0.809700000000     0.097450000000     0.0630515  
C60      C      0.724440000000     0.736100000000     0.102840000000     0.0344075  
C61      C      0.755870000000     0.791840000000     0.064490000000    -0.00592518 
C62      C      0.768650000000     0.811500000000     0.027360000000     0.313201   
C63      C      0.714540000000     0.249510000000     0.368980000000     0.0430737  
C64      C      0.752200000000     0.316430000000     0.362870000000     0.0628416  
C65      C      0.734570000000     0.233100000000     0.336790000000     0.0323367  
C66      C      0.771710000000     0.300750000000     0.329770000000    -0.0046321  
C67      C      0.797760000000     0.333100000000     0.308260000000     0.309262   
C68      C      0.748510000000     0.292990000000     0.131370000000     0.0409757  
C69      C      0.756930000000     0.224180000000     0.101070000000     0.0626169  
C70      C      0.725470000000     0.308690000000     0.100080000000     0.0339278  
C71      C      0.732970000000     0.239340000000     0.069650000000    -0.00564206 
C72      C      0.721820000000     0.206180000000     0.040140000000     0.311005   
C73      C      0.639970000000     0.498720000000     0.456290000000     0.0407271  
C74      C      0.708190000000     0.495710000000     0.983170000000     0.0622839  
C75      C      0.641980000000     0.544750000000     0.455370000000     0.0328989  
C76      C      0.710910000000     0.542280000000     0.981720000000    -0.00428609 
C77      C      0.752310000000     0.562390000000     0.991350000000     0.30876    
C78      C      0.225360000000     0.808730000000     0.350970000000     0.0408399  
C79      C      0.254490000000     0.753310000000     0.312250000000     0.061015   
C80      C      0.248460000000     0.792730000000     0.382110000000     0.0320472  
C81      C      0.278740000000     0.737480000000     0.343280000000    -0.00511721 
C82      C      0.310450000000     0.702740000000     0.335030000000     0.310211   
C83      C      0.237140000000     0.736930000000     0.085430000000     0.0420532  
C84      C      0.276000000000     0.802870000000     0.077810000000     0.0633234  
C85      C      0.216780000000     0.755000000000     0.116760000000     0.0348974  
C86      C      0.254940000000     0.821870000000     0.108810000000    -0.00558164 
C87      C      0.263320000000     0.869430000000     0.116230000000     0.310895   
C88      C      0.520290000000     0.727270000000     0.444220000000     0.0414321  
C89      C      0.522120000000     0.732630000000     0.011270000000     0.0621543  
C90      C      0.476500000000     0.730050000000     0.444610000000     0.0328066  
C91      C      0.477970000000     0.736620000000     0.011930000000    -0.00288141 
C92      C      0.458310000000     0.748280000000     0.048890000000     0.311366   
C93      C      0.225460000000     0.304960000000     0.372240000000     0.0408332  
C94      C      0.281940000000     0.254910000000     0.366340000000     0.061409   
C95      C      0.205610000000     0.285830000000     0.340770000000     0.0342249  
C96      C      0.261820000000     0.234700000000     0.335110000000    -0.00499681 
C97      C      0.281380000000     0.193620000000     0.320350000000     0.310258   
C98      C      0.265790000000     0.251270000000     0.079480000000     0.0411027  
C99      C      0.243990000000     0.323290000000     0.095680000000     0.0627194  
C100     C      0.247360000000     0.234660000000     0.112570000000     0.0336968  
C101     C      0.226150000000     0.307080000000     0.129610000000    -0.00581263 
C102     C      0.209950000000     0.340550000000     0.156610000000     0.310398   
C103     C      0.514270000000     0.315400000000     0.005840000000     0.0413522  
C104     C      0.514980000000     0.321570000000     0.438760000000     0.0625727  
C105     C      0.470340000000     0.315290000000     0.005130000000     0.0352975  
C106     C      0.470700000000     0.320930000000     0.437660000000    -0.00413047 
C107     C      0.449980000000     0.317370000000     0.399590000000     0.3095     
C108     C      0.295880000000     0.504220000000     0.457600000000     0.0413827  
C109     C      0.348740000000     0.501250000000     0.005150000000     0.0641907  
C110     C      0.295200000000     0.550330000000     0.460060000000     0.0337843  
C111     C      0.347940000000     0.547600000000     0.008270000000    -0.00457074 
C112     C      0.373020000000     0.567210000000     0.039900000000     0.310729   
C113     C      0.323300000000     0.434630000000     0.477930000000     0.414136   
C114     C      0.283160000000     0.308350000000     0.915670000000     0.409932   
C115     C      0.405830000000     0.327390000000     0.972830000000     0.420005   
C116     C      0.282590000000     0.311770000000     0.538840000000     0.419381   
C117     C      0.323420000000     0.617670000000     0.982540000000     0.417727   
C118     C      0.287210000000     0.742790000000     0.535750000000     0.416342   
C119     C      0.412200000000     0.726510000000     0.477690000000     0.420293   
C120     C      0.293760000000     0.740370000000     0.911250000000     0.417201   
C121     C      0.579330000000     0.324050000000     0.473620000000     0.417413   
C122     C      0.703620000000     0.307210000000     0.913420000000     0.414763   
C123     C      0.670060000000     0.429110000000     0.972020000000     0.414895   
C124     C      0.698710000000     0.301180000000     0.537500000000     0.41853    
C125     C      0.674860000000     0.612250000000     0.470820000000     0.419405   
C126     C      0.710230000000     0.735680000000     0.915310000000     0.415585   
C127     C      0.585430000000     0.720130000000     0.977250000000     0.413635   
C128     C      0.708170000000     0.737830000000     0.537040000000     0.415985   
C129     C      0.823020000000     0.113130000000     0.730450000000     0.412212   
C130     C      0.784210000000     0.239170000000     0.787290000000     0.417329   
C131     C      0.907280000000     0.221040000000     0.728030000000     0.418334   
C132     C      0.785910000000     0.235240000000     0.662990000000     0.417054   
C133     C      0.910320000000     0.816660000000     0.726070000000     0.424256   
C134     C      0.792280000000     0.806090000000     0.790260000000     0.416367   
C135     C      0.826480000000     0.929760000000     0.728530000000     0.420798   
C136     C      0.788290000000     0.807180000000     0.664120000000     0.415905   
C137     C      0.083400000000     0.820410000000     0.726330000000     0.414817   
C138     C      0.206450000000     0.811950000000     0.661410000000     0.416161   
C139     C      0.169500000000     0.931260000000     0.717970000000     0.422411   
C140     C      0.206290000000     0.805500000000     0.785480000000     0.412851   
C141     C      0.080920000000     0.221430000000     0.727360000000     0.417909   
C142     C      0.204110000000     0.235750000000     0.789370000000     0.415571   
C143     C      0.165000000000     0.114190000000     0.723570000000     0.413793   
C144     C      0.206460000000     0.243070000000     0.667870000000     0.422281   
C145     C      0.191100000000     0.045020000000     0.745980000000     0.0404652  
C146     C      0.144240000000     0.047330000000     0.693500000000     0.0610622  
C147     C      0.193140000000     0.999020000000     0.743330000000     0.0325545  
C148     C      0.146230000000     0.000950000000     0.690390000000    -0.00567572 
C149     C      0.125230000000     0.980790000000     0.656670000000     0.309504   
C150     C      0.018870000000     0.817200000000     0.759870000000     0.0409225  
C151     C      0.019530000000     0.803830000000     0.693730000000     0.0638424  
C152     C      0.975030000000     0.815160000000     0.759520000000     0.0371882  
C153     C      0.975310000000     0.800650000000     0.693200000000    -0.00191211 
C154     C      0.954850000000     0.785260000000     0.657360000000     0.311275   
C155     C      0.787770000000     0.043770000000     0.725720000000     0.0414583  
C156     C      0.861400000000     0.046010000000     0.734520000000     0.0628783  
C157     C      0.789310000000     0.997540000000     0.724470000000     0.0343554  
C158     C      0.863500000000     0.999700000000     0.732400000000    -0.00438285 
C159     C      0.906380000000     0.980050000000     0.731510000000     0.310305   
C160     C      0.972750000000     0.216540000000     0.760690000000     0.0437781  
C161     C      0.970950000000     0.239840000000     0.696390000000     0.0632811  
C162     C      0.016590000000     0.217240000000     0.760280000000     0.0335464  
C163     C      0.015260000000     0.242130000000     0.696030000000    -0.00401505 
C164     C      0.035140000000     0.262360000000     0.661830000000     0.310681   
C165     C      0.720200000000     0.793380000000     0.869970000000     0.0413662  
C166     C      0.764800000000     0.730950000000     0.869680000000     0.0615667  
C167     C      0.741760000000     0.811180000000     0.838970000000     0.0327524  
C168     C      0.787410000000     0.749030000000     0.839010000000    -0.00405984 
C169     C      0.826500000000     0.725460000000     0.827980000000     0.308952   
C170     C      0.743860000000     0.753620000000     0.635200000000     0.0407362  
C171     C      0.774590000000     0.809700000000     0.597450000000     0.0628458  
C172     C      0.724440000000     0.736100000000     0.602840000000     0.0343843  
C173     C      0.755860000000     0.791840000000     0.564490000000    -0.00564989 
C174     C      0.768650000000     0.811500000000     0.527350000000     0.312017   
C175     C      0.714530000000     0.249510000000     0.868980000000     0.0429944  
C176     C      0.752200000000     0.316430000000     0.862870000000     0.0627938  
C177     C      0.734560000000     0.233100000000     0.836790000000     0.0322751  
C178     C      0.771710000000     0.300750000000     0.829770000000    -0.00468114 
C179     C      0.797760000000     0.333100000000     0.808260000000     0.309265   
C180     C      0.748510000000     0.292990000000     0.631370000000     0.0409265  
C181     C      0.756930000000     0.224180000000     0.601070000000     0.0625781  
C182     C      0.725470000000     0.308690000000     0.600080000000     0.0338767  
C183     C      0.732970000000     0.239340000000     0.569650000000    -0.00573404 
C184     C      0.721820000000     0.206180000000     0.540140000000     0.310986   
C185     C      0.639970000000     0.498720000000     0.956290000000     0.040621   
C186     C      0.708190000000     0.495720000000     0.483170000000     0.0625895  
C187     C      0.641980000000     0.544750000000     0.955370000000     0.0328145  
C188     C      0.710910000000     0.542280000000     0.481720000000    -0.00456647 
C189     C      0.752310000000     0.562390000000     0.491350000000     0.310411   
C190     C      0.225360000000     0.808730000000     0.850970000000     0.0407878  
C191     C      0.254490000000     0.753320000000     0.812250000000     0.0610267  
C192     C      0.248460000000     0.792730000000     0.882110000000     0.0319898  
C193     C      0.278740000000     0.737480000000     0.843280000000    -0.00514129 
C194     C      0.310450000000     0.702740000000     0.835030000000     0.310118   
C195     C      0.237140000000     0.736930000000     0.585430000000     0.0419666  
C196     C      0.276000000000     0.802860000000     0.577810000000     0.0633195  
C197     C      0.216780000000     0.755000000000     0.616760000000     0.0349033  
C198     C      0.254940000000     0.821860000000     0.608810000000    -0.00563037 
C199     C      0.263320000000     0.869430000000     0.616230000000     0.31087    
C200     C      0.520290000000     0.727270000000     0.944220000000     0.041234   
C201     C      0.522130000000     0.732630000000     0.511270000000     0.0612527  
C202     C      0.476500000000     0.730050000000     0.944610000000     0.0326047  
C203     C      0.477970000000     0.736620000000     0.511930000000    -0.00360858 
C204     C      0.458310000000     0.748290000000     0.548890000000     0.311372   
C205     C      0.225460000000     0.304960000000     0.872240000000     0.0407772  
C206     C      0.281940000000     0.254910000000     0.866340000000     0.0613658  
C207     C      0.205610000000     0.285830000000     0.840770000000     0.0341796  
C208     C      0.261820000000     0.234700000000     0.835110000000    -0.00504704 
C209     C      0.281380000000     0.193620000000     0.820350000000     0.31025    
C210     C      0.265790000000     0.251270000000     0.579480000000     0.0410487  
C211     C      0.243990000000     0.323290000000     0.595670000000     0.0627241  
C212     C      0.247360000000     0.234660000000     0.612570000000     0.0336355  
C213     C      0.226150000000     0.307080000000     0.629610000000    -0.00587631 
C214     C      0.209950000000     0.340550000000     0.656610000000     0.310399   
C215     C      0.514270000000     0.315400000000     0.505840000000     0.0404792  
C216     C      0.514980000000     0.321570000000     0.938760000000     0.0623828  
C217     C      0.470340000000     0.315290000000     0.505130000000     0.0344064  
C218     C      0.470700000000     0.320930000000     0.937660000000    -0.00430676 
C219     C      0.449980000000     0.317370000000     0.899590000000     0.309543   
C220     C      0.295880000000     0.504220000000     0.957600000000     0.0412263  
C221     C      0.348740000000     0.501250000000     0.505150000000     0.0632073  
C222     C      0.295200000000     0.550330000000     0.960050000000     0.03356    
C223     C      0.347940000000     0.547600000000     0.508270000000    -0.00544081 
C224     C      0.373020000000     0.567210000000     0.539890000000     0.310565   
H1       H      0.212550000000     0.981550000000     0.264150000000     0.0499207  
H2       H      0.209560000000     0.061010000000     0.268120000000     0.0471795  
H3       H      0.125530000000     0.065870000000     0.172800000000     0.0536612  
H4       H      0.133170000000     0.937880000000     0.112900000000     0.196101   
H5       H      0.959070000000     0.820640000000     0.286330000000     0.0560611  
H6       H      0.034700000000     0.823640000000     0.286800000000     0.0480293  
H7       H      0.036610000000     0.798160000000     0.167480000000     0.0552405  
H8       H      0.910350000000     0.743840000000     0.135760000000     0.19295    
H9       H      0.759750000000     0.979950000000     0.220950000000     0.050238   
H10      H      0.757390000000     0.059890000000     0.222530000000     0.0482297  
H11      H      0.890620000000     0.064420000000     0.237690000000     0.0537709  
H12      H      0.963400000000     0.979360000000     0.258230000000     0.19505    
H13      H      0.032910000000     0.207310000000     0.286290000000     0.0518135  
H14      H      0.957410000000     0.206480000000     0.286920000000     0.0506288  
H15      H      0.953430000000     0.249810000000     0.171000000000     0.0530035  
H16      H      0.078110000000     0.307830000000     0.144080000000     0.196658   
H17      H      0.730860000000     0.842740000000     0.327620000000     0.0499378  
H18      H      0.694160000000     0.812160000000     0.381500000000     0.0494778  
H19      H      0.775180000000     0.699610000000     0.381980000000     0.0545628  
H20      H      0.851030000000     0.664820000000     0.316760000000     0.19492    
H21      H      0.704520000000     0.707240000000     0.106760000000     0.0526673  
H22      H      0.738530000000     0.737280000000     0.162410000000     0.0490168  
H23      H      0.795100000000     0.838300000000     0.094450000000     0.0549161  
H24      H      0.792600000000     0.797450000000     0.975210000000     0.19222    
H25      H      0.726780000000     0.199650000000     0.328100000000     0.0504544  
H26      H      0.691940000000     0.228350000000     0.383340000000     0.0492614  
H27      H      0.759030000000     0.349940000000     0.372160000000     0.052716   
H28      H      0.844450000000     0.378720000000     0.313560000000     0.194734   
H29      H      0.714340000000     0.342650000000     0.101070000000     0.052188   
H30      H      0.753470000000     0.315150000000     0.155210000000     0.0521386  
H31      H      0.768140000000     0.190180000000     0.101250000000     0.0526346  
H32      H      0.673260000000     0.179440000000     0.010020000000     0.191938   
H33      H      0.614530000000     0.562340000000     0.444520000000     0.0503302  
H34      H      0.611480000000     0.483050000000     0.445700000000     0.0488277  
H35      H      0.735180000000     0.476880000000     0.993460000000     0.0529667  
H36      H      0.797050000000     0.605570000000     0.973000000000     0.193112   
H37      H      0.244290000000     0.809320000000     0.409170000000     0.0501563  
H38      H      0.205080000000     0.837160000000     0.355260000000     0.0482099  
H39      H      0.258210000000     0.737850000000     0.284590000000     0.0520069  
H40      H      0.372280000000     0.686270000000     0.340600000000     0.191042   
H41      H      0.193990000000     0.734250000000     0.131320000000     0.0532889  
H42      H      0.228930000000     0.703470000000     0.077080000000     0.0498311  
H43      H      0.298810000000     0.822810000000     0.062380000000     0.0527682  
H44      H      0.235830000000     0.929760000000     0.122050000000     0.197852   
H45      H      0.460060000000     0.728030000000     0.417430000000     0.0508259  
H46      H      0.535630000000     0.723860000000     0.416850000000     0.0486293  
H47      H      0.539670000000     0.734870000000     0.037910000000     0.0521044  
H48      H      0.415040000000     0.788100000000     0.073860000000     0.195953   
H49      H      0.175680000000     0.299830000000     0.331610000000     0.052423   
H50      H      0.209850000000     0.332330000000     0.386180000000     0.0488575  
H51      H      0.311770000000     0.241420000000     0.376430000000     0.0523032  
H52      H      0.270410000000     0.128990000000     0.307780000000     0.192149   
H53      H      0.249220000000     0.199170000000     0.117450000000     0.0511021  
H54      H      0.281420000000     0.228140000000     0.060760000000     0.0480509  
H55      H      0.243060000000     0.358710000000     0.090000000000     0.0520627  
H56      H      0.173340000000     0.395490000000     0.160690000000     0.195156   
H57      H      0.454260000000     0.313480000000     0.032310000000     0.0503655  
H58      H      0.530140000000     0.313080000000     0.033300000000     0.0478339  
H59      H      0.532000000000     0.322920000000     0.412020000000     0.0539643  
H60      H      0.403930000000     0.285700000000     0.369780000000     0.196072   
H61      H      0.273880000000     0.568170000000     0.441090000000     0.0522521  
H62      H      0.274600000000     0.488460000000     0.437510000000     0.0495162  
H63      H      0.369450000000     0.482480000000     0.024070000000     0.0535535  
H64      H      0.429610000000     0.564910000000     0.067320000000     0.19715    
H65      H      0.212550000000     0.981550000000     0.764150000000     0.0498736  
H66      H      0.209560000000     0.061010000000     0.768120000000     0.0471374  
H67      H      0.125530000000     0.065870000000     0.672800000000     0.053612   
H68      H      0.133170000000     0.937880000000     0.612890000000     0.195853   
H69      H      0.959070000000     0.820640000000     0.786330000000     0.0560084  
H70      H      0.034700000000     0.823640000000     0.786800000000     0.0479708  
H71      H      0.036610000000     0.798170000000     0.667480000000     0.0551817  
H72      H      0.910350000000     0.743840000000     0.635760000000     0.192824   
H73      H      0.759750000000     0.979950000000     0.720950000000     0.0502037  
H74      H      0.757390000000     0.059890000000     0.722530000000     0.0481745  
H75      H      0.890610000000     0.064420000000     0.737690000000     0.0537521  
H76      H      0.963400000000     0.979360000000     0.758230000000     0.195012   
H77      H      0.032910000000     0.207310000000     0.786290000000     0.0517534  
H78      H      0.957410000000     0.206480000000     0.786920000000     0.0505689  
H79      H      0.953430000000     0.249810000000     0.671000000000     0.0529539  
H80      H      0.078110000000     0.307830000000     0.644080000000     0.196564   
H81      H      0.730860000000     0.842740000000     0.827620000000     0.0498838  
H82      H      0.694160000000     0.812160000000     0.881500000000     0.0493747  
H83      H      0.775170000000     0.699610000000     0.881980000000     0.0545195  
H84      H      0.851020000000     0.664820000000     0.816760000000     0.194976   
H85      H      0.704510000000     0.707240000000     0.606760000000     0.0525833  
H86      H      0.738530000000     0.737290000000     0.662420000000     0.049002   
H87      H      0.795100000000     0.838300000000     0.594450000000     0.0548794  
H88      H      0.792600000000     0.797450000000     0.475210000000     0.192242   
H89      H      0.726780000000     0.199650000000     0.828100000000     0.0503985  
H90      H      0.691940000000     0.228350000000     0.883340000000     0.0491316  
H91      H      0.759020000000     0.349940000000     0.872160000000     0.0526685  
H92      H      0.844450000000     0.378720000000     0.813560000000     0.194682   
H93      H      0.714340000000     0.342650000000     0.601070000000     0.0520844  
H94      H      0.753470000000     0.315150000000     0.655210000000     0.0521009  
H95      H      0.768140000000     0.190180000000     0.601250000000     0.0525708  
H96      H      0.673260000000     0.179440000000     0.510020000000     0.191667   
H97      H      0.614530000000     0.562340000000     0.944520000000     0.050247   
H98      H      0.611470000000     0.483050000000     0.945700000000     0.0487462  
H99      H      0.735180000000     0.476880000000     0.493460000000     0.0531869  
H100     H      0.797050000000     0.605570000000     0.473000000000     0.193399   
H101     H      0.244290000000     0.809320000000     0.909170000000     0.0499864  
H102     H      0.205080000000     0.837160000000     0.855260000000     0.0481239  
H103     H      0.258210000000     0.737850000000     0.784590000000     0.0519844  
H104     H      0.372280000000     0.686270000000     0.840600000000     0.191078   
H105     H      0.193990000000     0.734240000000     0.631320000000     0.0532075  
H106     H      0.228930000000     0.703470000000     0.577080000000     0.0497041  
H107     H      0.298810000000     0.822810000000     0.562380000000     0.0526311  
H108     H      0.235830000000     0.929760000000     0.622040000000     0.197804   
H109     H      0.460060000000     0.728030000000     0.917430000000     0.0508188  
H110     H      0.535630000000     0.723860000000     0.916850000000     0.0486184  
H111     H      0.539660000000     0.734870000000     0.537910000000     0.0521356  
H112     H      0.415040000000     0.788100000000     0.573860000000     0.195971   
H113     H      0.175680000000     0.299830000000     0.831610000000     0.0523783  
H114     H      0.209850000000     0.332330000000     0.886180000000     0.048761   
H115     H      0.311770000000     0.241420000000     0.876430000000     0.0522268  
H116     H      0.270410000000     0.128990000000     0.807780000000     0.192097   
H117     H      0.249220000000     0.199170000000     0.617450000000     0.051033   
H118     H      0.281420000000     0.228140000000     0.560760000000     0.047899   
H119     H      0.243060000000     0.358720000000     0.590000000000     0.0519431  
H120     H      0.173340000000     0.395490000000     0.660690000000     0.195099   
H121     H      0.454270000000     0.313480000000     0.532310000000     0.0503836  
H122     H      0.530140000000     0.313080000000     0.533300000000     0.0478487  
H123     H      0.532000000000     0.322920000000     0.912020000000     0.0539704  
H124     H      0.403930000000     0.285700000000     0.869780000000     0.196054   
H125     H      0.273880000000     0.568160000000     0.941090000000     0.0521866  
H126     H      0.274600000000     0.488460000000     0.937510000000     0.0494427  
H127     H      0.369450000000     0.482480000000     0.524070000000     0.053468   
H128     H      0.429610000000     0.564910000000     0.567320000000     0.19709    
In1      In     0.322450000000     0.345020000000     0.476670000000     2.42076    
In2      In     0.328740000000     0.707080000000     0.476350000000     2.42838    
In3      In     0.663300000000     0.339750000000     0.474780000000     2.42122    
In4      In     0.668850000000     0.701740000000     0.475850000000     2.4284     
In5      In     0.824000000000     0.202820000000     0.226880000000     2.41967    
In6      In     0.827820000000     0.839990000000     0.226680000000     2.43625    
In7      In     0.166330000000     0.841600000000     0.224000000000     2.42044    
In8      In     0.164570000000     0.203940000000     0.226370000000     2.43079    
In9      In     0.322450000000     0.345020000000     0.976670000000     2.41818    
In10     In     0.328740000000     0.707080000000     0.976350000000     2.42554    
In11     In     0.663300000000     0.339750000000     0.974780000000     2.41837    
In12     In     0.668850000000     0.701740000000     0.975850000000     2.42565    
In13     In     0.823990000000     0.202820000000     0.726880000000     2.41964    
In14     In     0.827820000000     0.839990000000     0.726680000000     2.43646    
In15     In     0.166330000000     0.841600000000     0.724000000000     2.42061    
In16     In     0.164570000000     0.203940000000     0.726370000000     2.43062    
N1       N      0.166480000000     0.068980000000     0.221260000000    -0.179817   
N2       N      0.169920000000     0.976750000000     0.216460000000    -0.162527   
N3       N      0.040830000000     0.813420000000     0.226730000000    -0.179409   
N4       N      0.953090000000     0.809490000000     0.226020000000    -0.159698   
N5       N      0.823830000000     0.067790000000     0.230660000000    -0.179067   
N6       N      0.826850000000     0.975320000000     0.228240000000    -0.162225   
N7       N      0.950120000000     0.226200000000     0.228390000000    -0.178541   
N8       N      0.038030000000     0.227980000000     0.227680000000    -0.160301   
N9       N      0.731490000000     0.753150000000     0.384940000000    -0.179559   
N10      N      0.774570000000     0.788780000000     0.322760000000    -0.161486   
N11      N      0.768750000000     0.790390000000     0.132430000000    -0.179895   
N12      N      0.729710000000     0.755320000000     0.067600000000    -0.160616   
N13      N      0.723590000000     0.290970000000     0.382030000000    -0.179244   
N14      N      0.763620000000     0.258100000000     0.317440000000    -0.162104   
N15      N      0.764340000000     0.250920000000     0.131720000000    -0.179924   
N16      N      0.718330000000     0.282530000000     0.068860000000    -0.161427   
N17      N      0.672770000000     0.474340000000     0.470650000000    -0.179546   
N18      N      0.676680000000     0.566800000000     0.968980000000    -0.16166    
N19      N      0.228240000000     0.788890000000     0.316200000000    -0.179774   
N20      N      0.274520000000     0.756730000000     0.378760000000    -0.161312   
N21      N      0.266900000000     0.760740000000     0.066260000000    -0.179126   
N22      N      0.225940000000     0.797010000000     0.129030000000    -0.159891   
N23      N      0.542820000000     0.726880000000     0.477610000000    -0.179942   
N24      N      0.455140000000     0.732310000000     0.978380000000    -0.161487   
N25      N      0.263650000000     0.289660000000     0.384760000000    -0.178871   
N26      N      0.223860000000     0.251370000000     0.321660000000    -0.160266   
N27      N      0.263840000000     0.295430000000     0.071020000000    -0.181425   
N28      N      0.226840000000     0.262070000000     0.137360000000    -0.162535   
N29      N      0.536390000000     0.319970000000     0.972780000000    -0.179996   
N30      N      0.448530000000     0.320320000000     0.471440000000    -0.161185   
N31      N      0.322880000000     0.479890000000     0.979900000000    -0.179831   
N32      N      0.321940000000     0.572210000000     0.484390000000    -0.161617   
N33      N      0.166480000000     0.068980000000     0.721260000000    -0.179824   
N34      N      0.169920000000     0.976760000000     0.716460000000    -0.16248    
N35      N      0.040830000000     0.813420000000     0.726730000000    -0.179427   
N36      N      0.953090000000     0.809490000000     0.726020000000    -0.159697   
N37      N      0.823820000000     0.067790000000     0.730660000000    -0.179076   
N38      N      0.826850000000     0.975320000000     0.728240000000    -0.16224    
N39      N      0.950110000000     0.226200000000     0.728390000000    -0.178604   
N40      N      0.038030000000     0.227980000000     0.727680000000    -0.160311   
N41      N      0.731490000000     0.753150000000     0.884940000000    -0.179573   
N42      N      0.774570000000     0.788780000000     0.822760000000    -0.161491   
N43      N      0.768750000000     0.790390000000     0.632430000000    -0.179882   
N44      N      0.729710000000     0.755320000000     0.567600000000    -0.160795   
N45      N      0.723590000000     0.290970000000     0.882030000000    -0.17926    
N46      N      0.763620000000     0.258100000000     0.817450000000    -0.16203    
N47      N      0.764340000000     0.250920000000     0.631720000000    -0.179927   
N48      N      0.718330000000     0.282530000000     0.568860000000    -0.161501   
N49      N      0.672770000000     0.474340000000     0.970650000000    -0.179504   
N50      N      0.676680000000     0.566800000000     0.468980000000    -0.161592   
N51      N      0.228240000000     0.788890000000     0.816200000000    -0.179764   
N52      N      0.274520000000     0.756730000000     0.878760000000    -0.161336   
N53      N      0.266900000000     0.760740000000     0.566260000000    -0.179228   
N54      N      0.225940000000     0.797000000000     0.629030000000    -0.159898   
N55      N      0.542820000000     0.726880000000     0.977610000000    -0.180313   
N56      N      0.455140000000     0.732310000000     0.478380000000    -0.161127   
N57      N      0.263650000000     0.289660000000     0.884760000000    -0.178896   
N58      N      0.223860000000     0.251370000000     0.821660000000    -0.160217   
N59      N      0.263840000000     0.295430000000     0.571020000000    -0.181532   
N60      N      0.226840000000     0.262070000000     0.637360000000    -0.162539   
N61      N      0.536390000000     0.319970000000     0.472780000000    -0.179624   
N62      N      0.448530000000     0.320320000000     0.971440000000    -0.161606   
N63      N      0.322880000000     0.479890000000     0.479900000000    -0.179232   
N64      N      0.321930000000     0.572210000000     0.984390000000    -0.1622     
O1       O      0.302630000000     0.287750000000     0.015950000000    -0.496647   
O2       O      0.282130000000     0.352320000000     0.030030000000    -0.501719   
O3       O      0.267460000000     0.340080000000     0.434070000000    -0.487185   
O4       O      0.300230000000     0.413090000000     0.455110000000    -0.483648   
O5       O      0.384550000000     0.320850000000     0.002720000000    -0.489571   
O6       O      0.346230000000     0.410910000000     0.999450000000    -0.496798   
O7       O      0.318420000000     0.295190000000     0.428180000000    -0.488155   
O8       O      0.384960000000     0.343810000000     0.445320000000    -0.482722   
O9       O      0.292330000000     0.760090000000     0.442890000000    -0.498461   
O10      O      0.312610000000     0.703580000000     0.412770000000    -0.477531   
O11      O      0.279390000000     0.704350000000     0.023530000000    -0.49461    
O12      O      0.353410000000     0.639970000000     0.996240000000    -0.486411   
O13      O      0.391020000000     0.724390000000     0.447070000000    -0.493979   
O14      O      0.296030000000     0.640660000000     0.465050000000    -0.485036   
O15      O      0.315500000000     0.763260000000     0.017640000000    -0.485657   
O16      O      0.391040000000     0.718630000000     0.007230000000    -0.474054   
O17      O      0.697400000000     0.282980000000     0.005280000000    -0.486305   
O18      O      0.682270000000     0.339310000000     0.037950000000    -0.489662   
O19      O      0.711250000000     0.345150000000     0.426780000000    -0.497048   
O20      O      0.600780000000     0.329540000000     0.443780000000    -0.490405   
O21      O      0.699340000000     0.404620000000     0.984820000000    -0.482053   
O22      O      0.600500000000     0.325240000000     0.004290000000    -0.49369    
O23      O      0.675730000000     0.285650000000     0.431160000000    -0.485096   
O24      O      0.637860000000     0.408420000000     0.460640000000    -0.500351   
O25      O      0.705340000000     0.756990000000     0.005030000000    -0.487373   
O26      O      0.689010000000     0.701130000000     0.038720000000    -0.483497   
O27      O      0.719620000000     0.698720000000     0.430270000000    -0.493795   
O28      O      0.645040000000     0.634370000000     0.456120000000    -0.50087    
O29      O      0.607570000000     0.717210000000     0.007300000000    -0.496455   
O30      O      0.701350000000     0.635470000000     0.988730000000    -0.473718   
O31      O      0.679850000000     0.755370000000     0.430880000000    -0.486707   
O32      O      0.605560000000     0.714380000000     0.446790000000    -0.491806   
O33      O      0.791970000000     0.258130000000     0.192480000000    -0.493919   
O34      O      0.800180000000     0.196260000000     0.165270000000    -0.494172   
O35      O      0.774040000000     0.201940000000     0.273770000000    -0.495654   
O36      O      0.789660000000     0.135540000000     0.225930000000    -0.478304   
O37      O      0.885000000000     0.225630000000     0.198130000000    -0.490037   
O38      O      0.856050000000     0.136030000000     0.233650000000    -0.497341   
O39      O      0.815360000000     0.256760000000     0.271130000000    -0.482043   
O40      O      0.887170000000     0.208480000000     0.257160000000    -0.485953   
O41      O      0.784510000000     0.790140000000     0.196910000000    -0.497362   
O42      O      0.811970000000     0.840740000000     0.162930000000    -0.488988   
O43      O      0.816810000000     0.784380000000     0.269300000000    -0.479116   
O44      O      0.890210000000     0.824050000000     0.256300000000    -0.480506   
O45      O      0.794290000000     0.907190000000     0.219830000000    -0.488342   
O46      O      0.888470000000     0.820970000000     0.196030000000    -0.47833    
O47      O      0.784250000000     0.844780000000     0.278060000000    -0.498224   
O48      O      0.858040000000     0.906730000000     0.237850000000    -0.492452   
O49      O      0.208270000000     0.788900000000     0.252590000000    -0.496016   
O50      O      0.183370000000     0.839550000000     0.287460000000    -0.48918    
O51      O      0.177610000000     0.790320000000     0.177890000000    -0.483336   
O52      O      0.104510000000     0.820210000000     0.196020000000    -0.484351   
O53      O      0.195310000000     0.909050000000     0.237950000000    -0.489787   
O54      O      0.104390000000     0.830240000000     0.255830000000    -0.497284   
O55      O      0.216120000000     0.847730000000     0.177760000000    -0.48257    
O56      O      0.141960000000     0.908060000000     0.201440000000    -0.486306   
O57      O      0.181800000000     0.263900000000     0.189310000000    -0.483173   
O58      O      0.209400000000     0.202360000000     0.175860000000    -0.502536   
O59      O      0.167320000000     0.247410000000     0.279580000000    -0.483688   
O60      O      0.101370000000     0.208540000000     0.256540000000    -0.491727   
O61      O      0.145110000000     0.138000000000     0.199800000000    -0.494359   
O62      O      0.102910000000     0.224680000000     0.197620000000    -0.479425   
O63      O      0.221220000000     0.209390000000     0.266450000000    -0.479217   
O64      O      0.184090000000     0.135620000000     0.249180000000    -0.486975   
O65      O      0.146040000000     0.951070000000     0.135210000000    -0.316878   
O66      O      0.089690000000     0.992420000000     0.147380000000    -0.222925   
O67      O      0.923860000000     0.754620000000     0.158740000000    -0.317468   
O68      O      0.967130000000     0.799020000000     0.126480000000    -0.221642   
O69      O      0.935030000000     0.991100000000     0.258490000000    -0.327705   
O70      O      0.916470000000     0.955660000000     0.205420000000    -0.213963   
O71      O      0.065010000000     0.293890000000     0.165940000000    -0.313542   
O72      O      0.023240000000     0.251870000000     0.129890000000    -0.224018   
O73      O      0.825850000000     0.681090000000     0.323300000000    -0.327162   
O74      O      0.859670000000     0.745720000000     0.324940000000    -0.213146   
O75      O      0.783760000000     0.785320000000     0.999510000000    -0.320497   
O76      O      0.767230000000     0.851630000000     0.022560000000    -0.22431    
O77      O      0.827530000000     0.356850000000     0.326750000000    -0.32732    
O78      O      0.790940000000     0.339910000000     0.274340000000    -0.214781   
O79      O      0.681310000000     0.201190000000     0.028880000000    -0.318217   
O80      O      0.749050000000     0.182040000000     0.027200000000    -0.224963   
O81      O      0.769880000000     0.592430000000     0.967530000000    -0.312584   
O82      O      0.771420000000     0.550360000000     0.020030000000    -0.223506   
O83      O      0.350970000000     0.708220000000     0.346070000000    -0.31429    
O84      O      0.300290000000     0.670040000000     0.316760000000    -0.226351   
O85      O      0.231060000000     0.898540000000     0.117660000000    -0.314858   
O86      O      0.299590000000     0.882610000000     0.119360000000    -0.225946   
O87      O      0.428040000000     0.779700000000     0.050090000000    -0.314421   
O88      O      0.470610000000     0.730700000000     0.078490000000    -0.224865   
O89      O      0.258230000000     0.156280000000     0.316950000000    -0.312791   
O90      O      0.318930000000     0.193020000000     0.312860000000    -0.226488   
O91      O      0.183830000000     0.372830000000     0.143840000000    -0.329715   
O92      O      0.221750000000     0.340290000000     0.189900000000    -0.218016   
O93      O      0.417680000000     0.288840000000     0.394360000000    -0.312665   
O94      O      0.463150000000     0.339020000000     0.372570000000    -0.225835   
O95      O      0.412820000000     0.553170000000     0.046560000000    -0.329199   
O96      O      0.357160000000     0.594540000000     0.060970000000    -0.214736   
O97      O      0.302630000000     0.287750000000     0.515950000000    -0.497469   
O98      O      0.282130000000     0.352320000000     0.530030000000    -0.502593   
O99      O      0.267460000000     0.340080000000     0.934070000000    -0.487155   
O100     O      0.300230000000     0.413090000000     0.955110000000    -0.483523   
O101     O      0.384560000000     0.320850000000     0.502720000000    -0.491251   
O102     O      0.346230000000     0.410920000000     0.499450000000    -0.496382   
O103     O      0.318420000000     0.295190000000     0.928180000000    -0.488116   
O104     O      0.384960000000     0.343810000000     0.945320000000    -0.48213    
O105     O      0.292330000000     0.760090000000     0.942890000000    -0.498558   
O106     O      0.312610000000     0.703580000000     0.912770000000    -0.477314   
O107     O      0.279390000000     0.704350000000     0.523530000000    -0.495513   
O108     O      0.353410000000     0.639970000000     0.496240000000    -0.486044   
O109     O      0.391020000000     0.724390000000     0.947070000000    -0.493485   
O110     O      0.296030000000     0.640660000000     0.965050000000    -0.484997   
O111     O      0.315500000000     0.763260000000     0.517640000000    -0.486474   
O112     O      0.391040000000     0.718630000000     0.507230000000    -0.475706   
O113     O      0.697400000000     0.282980000000     0.505280000000    -0.48722    
O114     O      0.682270000000     0.339310000000     0.537950000000    -0.490448   
O115     O      0.711250000000     0.345150000000     0.926780000000    -0.496879   
O116     O      0.600780000000     0.329540000000     0.943780000000    -0.489891   
O117     O      0.699330000000     0.404630000000     0.484820000000    -0.482171   
O118     O      0.600500000000     0.325240000000     0.504290000000    -0.495345   
O119     O      0.675730000000     0.285650000000     0.931160000000    -0.485127   
O120     O      0.637860000000     0.408420000000     0.960640000000    -0.500233   
O121     O      0.705340000000     0.756990000000     0.505030000000    -0.488394   
O122     O      0.689010000000     0.701130000000     0.538720000000    -0.484274   
O123     O      0.719620000000     0.698720000000     0.930270000000    -0.493633   
O124     O      0.645040000000     0.634370000000     0.956120000000    -0.500719   
O125     O      0.607570000000     0.717220000000     0.507300000000    -0.498108   
O126     O      0.701340000000     0.635470000000     0.488730000000    -0.473824   
O127     O      0.679850000000     0.755370000000     0.930880000000    -0.486689   
O128     O      0.605570000000     0.714380000000     0.946790000000    -0.491344   
O129     O      0.791970000000     0.258130000000     0.692480000000    -0.493966   
O130     O      0.800190000000     0.196260000000     0.665270000000    -0.494234   
O131     O      0.774040000000     0.201940000000     0.773770000000    -0.49574    
O132     O      0.789660000000     0.135540000000     0.725930000000    -0.478395   
O133     O      0.885000000000     0.225630000000     0.698130000000    -0.489989   
O134     O      0.856050000000     0.136030000000     0.733650000000    -0.497312   
O135     O      0.815360000000     0.256760000000     0.771130000000    -0.482133   
O136     O      0.887170000000     0.208480000000     0.757160000000    -0.485911   
O137     O      0.784510000000     0.790140000000     0.696910000000    -0.497397   
O138     O      0.811970000000     0.840740000000     0.662930000000    -0.48904    
O139     O      0.816810000000     0.784380000000     0.769300000000    -0.479145   
O140     O      0.890210000000     0.824050000000     0.756300000000    -0.480441   
O141     O      0.794290000000     0.907190000000     0.719840000000    -0.48855    
O142     O      0.888460000000     0.820970000000     0.696030000000    -0.478488   
O143     O      0.784250000000     0.844780000000     0.778060000000    -0.498261   
O144     O      0.858030000000     0.906730000000     0.737850000000    -0.492749   
O145     O      0.208270000000     0.788900000000     0.752580000000    -0.495943   
O146     O      0.183370000000     0.839550000000     0.787460000000    -0.489179   
O147     O      0.177610000000     0.790320000000     0.677900000000    -0.483404   
O148     O      0.104510000000     0.820220000000     0.696020000000    -0.484439   
O149     O      0.195310000000     0.909050000000     0.737950000000    -0.489808   
O150     O      0.104390000000     0.830240000000     0.755830000000    -0.497345   
O151     O      0.216120000000     0.847730000000     0.677760000000    -0.482556   
O152     O      0.141960000000     0.908060000000     0.701440000000    -0.486302   
O153     O      0.181800000000     0.263900000000     0.689310000000    -0.483182   
O154     O      0.209400000000     0.202360000000     0.675860000000    -0.502552   
O155     O      0.167320000000     0.247410000000     0.779590000000    -0.483658   
O156     O      0.101370000000     0.208540000000     0.756540000000    -0.491758   
O157     O      0.145110000000     0.138000000000     0.699800000000    -0.49438    
O158     O      0.102910000000     0.224680000000     0.697620000000    -0.479444   
O159     O      0.221220000000     0.209390000000     0.766450000000    -0.47929    
O160     O      0.184090000000     0.135620000000     0.749180000000    -0.486983   
O161     O      0.146040000000     0.951070000000     0.635210000000    -0.316704   
O162     O      0.089690000000     0.992420000000     0.647380000000    -0.223006   
O163     O      0.923860000000     0.754630000000     0.658740000000    -0.317555   
O164     O      0.967130000000     0.799020000000     0.626480000000    -0.221941   
O165     O      0.935030000000     0.991100000000     0.758490000000    -0.327757   
O166     O      0.916470000000     0.955660000000     0.705420000000    -0.214022   
O167     O      0.065010000000     0.293890000000     0.665940000000    -0.313571   
O168     O      0.023230000000     0.251870000000     0.629890000000    -0.224162   
O169     O      0.825850000000     0.681090000000     0.823300000000    -0.327333   
O170     O      0.859670000000     0.745720000000     0.824940000000    -0.213251   
O171     O      0.783760000000     0.785320000000     0.499510000000    -0.319264   
O172     O      0.767230000000     0.851630000000     0.522550000000    -0.224442   
O173     O      0.827530000000     0.356850000000     0.826750000000    -0.327395   
O174     O      0.790940000000     0.339910000000     0.774340000000    -0.214817   
O175     O      0.681310000000     0.201190000000     0.528880000000    -0.318337   
O176     O      0.749050000000     0.182040000000     0.527200000000    -0.22529    
O177     O      0.769870000000     0.592430000000     0.467530000000    -0.312843   
O178     O      0.771420000000     0.550350000000     0.520030000000    -0.225104   
O179     O      0.350980000000     0.708220000000     0.846070000000    -0.314329   
O180     O      0.300290000000     0.670040000000     0.816760000000    -0.226369   
O181     O      0.231060000000     0.898540000000     0.617660000000    -0.314964   
O182     O      0.299590000000     0.882610000000     0.619360000000    -0.226059   
O183     O      0.428030000000     0.779700000000     0.550090000000    -0.314726   
O184     O      0.470620000000     0.730700000000     0.578490000000    -0.224943   
O185     O      0.258230000000     0.156280000000     0.816950000000    -0.312851   
O186     O      0.318930000000     0.193020000000     0.812860000000    -0.226561   
O187     O      0.183830000000     0.372830000000     0.643840000000    -0.329812   
O188     O      0.221750000000     0.340290000000     0.689900000000    -0.218052   
O189     O      0.417680000000     0.288840000000     0.894360000000    -0.31277    
O190     O      0.463160000000     0.339010000000     0.872570000000    -0.22592    
O191     O      0.412830000000     0.553170000000     0.546560000000    -0.329402   
O192     O      0.357160000000     0.594540000000     0.560970000000    -0.21496    


