data_structure

_audit_creation_method RASPA-1.0
_audit_creation_date 2023-6-5
_audit_author_name 'Poobodin Mano'

_cell_length_a    31.9504
_cell_length_b    31.9788
_cell_length_c    33.1104
_cell_angle_alpha 89.553
_cell_angle_beta  90.447
_cell_angle_gamma 89.9991
_cell_volume      33828

_symmetry_cell_setting          triclinic
_symmetry_space_group_name_Hall 'P 1'
_symmetry_space_group_name_H-M  'P 1'
_symmetry_Int_Tables_number     1

_symmetry_equiv_pos_as_xyz 'x,y,z'

loop_
_atom_site_label
_atom_site_type_symbol
_atom_site_fract_x
_atom_site_fract_y
_atom_site_fract_z
_atom_site_charge
C1       C      0.319890000000     0.406330000000     0.007130000000     0.412545   
C2       C      0.282390000000     0.282290000000     0.448620000000     0.413671   
C3       C      0.408610000000     0.313540000000     0.503920000000     0.422279   
C4       C      0.287720000000     0.283870000000     0.072310000000     0.41119    
C5       C      0.319690000000     0.579420000000     0.505370000000     0.423569   
C6       C      0.284230000000     0.699460000000     0.071040000000     0.423962   
C7       C      0.407460000000     0.670120000000     0.006640000000     0.411869   
C8       C      0.283790000000     0.705330000000     0.446350000000     0.410842   
C9       C      0.581470000000     0.315280000000     0.998070000000     0.411456   
C10      C      0.704440000000     0.284040000000     0.432850000000     0.411706   
C11      C      0.673340000000     0.405490000000     0.496560000000     0.424695   
C12      C      0.707480000000     0.280670000000     0.055690000000     0.424      
C13      C      0.671570000000     0.578220000000     0.998130000000     0.41257    
C14      C      0.706690000000     0.701260000000     0.439060000000     0.425352   
C15      C      0.580540000000     0.666660000000     0.503510000000     0.424875   
C16      C      0.701290000000     0.701420000000     0.063230000000     0.422542   
C17      C      0.814750000000     0.077870000000     0.245130000000     0.423389   
C18      C      0.786440000000     0.202880000000     0.309470000000     0.423129   
C19      C      0.907800000000     0.166150000000     0.252240000000     0.413503   
C20      C      0.785280000000     0.201050000000     0.184720000000     0.413546   
C21      C      0.907630000000     0.813540000000     0.252270000000     0.422475   
C22      C      0.785240000000     0.781200000000     0.311730000000     0.412318   
C23      C      0.817470000000     0.905110000000     0.247240000000     0.412428   
C24      C      0.783130000000     0.782020000000     0.188120000000     0.4117     
C25      C      0.080590000000     0.816590000000     0.254110000000     0.41163    
C26      C      0.204020000000     0.781420000000     0.194990000000     0.412379   
C27      C      0.170940000000     0.907200000000     0.253980000000     0.41229    
C28      C      0.203960000000     0.786920000000     0.319500000000     0.422261   
C29      C      0.080780000000     0.169480000000     0.258820000000     0.426583   
C30      C      0.200320000000     0.202610000000     0.323290000000     0.424617   
C31      C      0.173410000000     0.080020000000     0.254630000000     0.423512   
C32      C      0.208660000000     0.203970000000     0.199430000000     0.424115   
C33      C      0.174650000000     0.971490000000     0.289040000000     0.0372319  
C34      C      0.174760000000     0.971600000000     0.217870000000     0.0114181  
C35      C      0.176100000000     0.015030000000     0.288820000000     0.0427253  
C36      C      0.176840000000     0.015490000000     0.217320000000     0.141032   
C37      C      0.015950000000     0.814920000000     0.218290000000     0.0358364  
C38      C      0.016490000000     0.810290000000     0.289350000000     0.0109381  
C39      C      0.972320000000     0.813350000000     0.218180000000     0.0408969  
C40      C      0.972630000000     0.807960000000     0.289540000000     0.139899   
C41      C      0.812480000000     0.969920000000     0.281180000000     0.0355884  
C42      C      0.814610000000     0.968880000000     0.210070000000     0.010827   
C43      C      0.811030000000     0.013470000000     0.280240000000     0.0404361  
C44      C      0.812320000000     0.012720000000     0.208760000000     0.138959   
C45      C      0.973630000000     0.172200000000     0.220070000000     0.0379438  
C46      C      0.970660000000     0.166240000000     0.290960000000     0.0127747  
C47      C      0.017200000000     0.173740000000     0.222170000000     0.0426424  
C48      C      0.014480000000     0.168350000000     0.293450000000     0.142234   
C49      C      0.729420000000     0.776030000000     0.358360000000     0.036695   
C50      C      0.784390000000     0.726950000000     0.361040000000     0.0124906  
C51      C      0.710190000000     0.755900000000     0.390780000000     0.0412336  
C52      C      0.765770000000     0.707000000000     0.394240000000     0.140785   
C53      C      0.778700000000     0.726850000000     0.140770000000     0.0369815  
C54      C      0.724660000000     0.776850000000     0.143800000000     0.0115459  
C55      C      0.757390000000     0.706380000000     0.109800000000     0.0427959  
C56      C      0.702610000000     0.756090000000     0.113110000000     0.141641   
C57      C      0.709630000000     0.228050000000     0.386560000000     0.0362653  
C58      C      0.761360000000     0.280550000000     0.387320000000     0.0123128  
C59      C      0.730950000000     0.207550000000     0.355930000000     0.0409923  
C60      C      0.783510000000     0.259730000000     0.357050000000     0.141404   
C61      C      0.728770000000     0.207010000000     0.138030000000     0.0376444  
C62      C      0.785780000000     0.253540000000     0.133730000000     0.0126325  
C63      C      0.709800000000     0.226890000000     0.105010000000     0.0421195  
C64      C      0.767330000000     0.273290000000     0.100080000000     0.143226   
C65      C      0.666430000000     0.514100000000     0.962800000000     0.0377925  
C66      C      0.684120000000     0.513740000000     0.532040000000     0.0127419  
C67      C      0.667680000000     0.470520000000     0.462610000000     0.0423282  
C68      C      0.686170000000     0.469910000000     0.532010000000     0.142485   
C69      C      0.228890000000     0.709790000000     0.397820000000     0.0373706  
C70      C      0.278640000000     0.763990000000     0.402140000000     0.0118358  
C71      C      0.208700000000     0.730960000000     0.366280000000     0.0419104  
C72      C      0.258140000000     0.785890000000     0.370830000000     0.139771   
C73      C      0.259370000000     0.776470000000     0.147920000000     0.0363809  
C74      C      0.208910000000     0.722880000000     0.151540000000     0.0114118  
C75      C      0.279690000000     0.755180000000     0.117170000000     0.0413241  
C76      C      0.229520000000     0.700840000000     0.121030000000     0.139646   
C77      C      0.471390000000     0.674000000000     0.470740000000     0.0368116  
C78      C      0.472460000000     0.666760000000     0.041610000000     0.0115288  
C79      C      0.515020000000     0.672550000000     0.470320000000     0.0415928  
C80      C      0.516290000000     0.664440000000     0.041460000000     0.141445   
C81      C      0.275700000000     0.225450000000     0.403420000000     0.0385507  
C82      C      0.225280000000     0.279230000000     0.402460000000     0.0125451  
C83      C      0.254400000000     0.205370000000     0.372210000000     0.0432737  
C84      C      0.203250000000     0.258950000000     0.371460000000     0.142502   
C85      C      0.231600000000     0.278540000000     0.118610000000     0.0367205  
C86      C      0.287600000000     0.230730000000     0.122850000000     0.0117523  
C87      C      0.212260000000     0.258460000000     0.151000000000     0.0423648  
C88      C      0.268750000000     0.210740000000     0.155950000000     0.141781   
C89      C      0.518280000000     0.315610000000     0.535260000000     0.0354136  
C90      C      0.515940000000     0.307810000000     0.964580000000     0.0106624  
C91      C      0.474680000000     0.314480000000     0.536430000000     0.0403641  
C92      C      0.472070000000     0.305720000000     0.465520000000     0.139211   
C93      C      0.318020000000     0.471240000000     0.041370000000     0.0366491  
C94      C      0.319620000000     0.470280000000     0.470260000000     0.0120208  
C95      C      0.318370000000     0.514850000000     0.040500000000     0.04186    
C96      C      0.320780000000     0.514140000000     0.469070000000     0.140214   
C97      C      0.319890000000     0.406330000000     0.507130000000     0.412657   
C98      C      0.282390000000     0.282290000000     0.948620000000     0.413626   
C99      C      0.408610000000     0.313540000000     0.003920000000     0.422282   
C100     C      0.287720000000     0.283870000000     0.572310000000     0.411195   
C101     C      0.319690000000     0.579420000000     0.005370000000     0.423245   
C102     C      0.284220000000     0.699450000000     0.571040000000     0.423975   
C103     C      0.407460000000     0.670120000000     0.506640000000     0.411988   
C104     C      0.283790000000     0.705330000000     0.946350000000     0.4106     
C105     C      0.581470000000     0.315280000000     0.498060000000     0.411298   
C106     C      0.704440000000     0.284040000000     0.932850000000     0.411907   
C107     C      0.673340000000     0.405490000000     0.996560000000     0.424872   
C108     C      0.707480000000     0.280670000000     0.555690000000     0.42395    
C109     C      0.671570000000     0.578230000000     0.498130000000     0.412478   
C110     C      0.706690000000     0.701260000000     0.939050000000     0.425332   
C111     C      0.580540000000     0.666660000000     0.003510000000     0.424785   
C112     C      0.701280000000     0.701420000000     0.563230000000     0.422541   
C113     C      0.814740000000     0.077870000000     0.745140000000     0.423119   
C114     C      0.786440000000     0.202880000000     0.809470000000     0.423279   
C115     C      0.907790000000     0.166150000000     0.752240000000     0.413584   
C116     C      0.785280000000     0.201050000000     0.684720000000     0.413804   
C117     C      0.907630000000     0.813540000000     0.752280000000     0.422532   
C118     C      0.785240000000     0.781200000000     0.811730000000     0.412365   
C119     C      0.817470000000     0.905100000000     0.747240000000     0.412483   
C120     C      0.783130000000     0.782020000000     0.688120000000     0.411701   
C121     C      0.080590000000     0.816590000000     0.754110000000     0.411623   
C122     C      0.204020000000     0.781420000000     0.694990000000     0.412386   
C123     C      0.170940000000     0.907200000000     0.753980000000     0.412349   
C124     C      0.203960000000     0.786930000000     0.819500000000     0.422267   
C125     C      0.080780000000     0.169480000000     0.758820000000     0.426575   
C126     C      0.200320000000     0.202610000000     0.823290000000     0.424722   
C127     C      0.173410000000     0.080020000000     0.754630000000     0.423476   
C128     C      0.208660000000     0.203970000000     0.699420000000     0.424029   
C129     C      0.174650000000     0.971480000000     0.789040000000     0.0372628  
C130     C      0.174760000000     0.971600000000     0.717870000000     0.0114306  
C131     C      0.176100000000     0.015030000000     0.788820000000     0.0427251  
C132     C      0.176840000000     0.015490000000     0.717320000000     0.141029   
C133     C      0.015950000000     0.814910000000     0.718290000000     0.035837   
C134     C      0.016490000000     0.810290000000     0.789350000000     0.0109364  
C135     C      0.972320000000     0.813350000000     0.718180000000     0.0409072  
C136     C      0.972630000000     0.807950000000     0.789540000000     0.139925   
C137     C      0.812480000000     0.969920000000     0.781180000000     0.0356227  
C138     C      0.814610000000     0.968880000000     0.710070000000     0.010763   
C139     C      0.811030000000     0.013470000000     0.780240000000     0.0404121  
C140     C      0.812320000000     0.012720000000     0.708760000000     0.138977   
C141     C      0.973630000000     0.172200000000     0.720070000000     0.0379474  
C142     C      0.970660000000     0.166240000000     0.790950000000     0.0128806  
C143     C      0.017200000000     0.173740000000     0.722170000000     0.0426394  
C144     C      0.014480000000     0.168350000000     0.793460000000     0.142182   
C145     C      0.729420000000     0.776030000000     0.858360000000     0.0366333  
C146     C      0.784390000000     0.726950000000     0.861040000000     0.0125316  
C147     C      0.710190000000     0.755900000000     0.890780000000     0.0412823  
C148     C      0.765770000000     0.707000000000     0.894240000000     0.140785   
C149     C      0.778700000000     0.726850000000     0.640770000000     0.0369765  
C150     C      0.724660000000     0.776850000000     0.643800000000     0.0115511  
C151     C      0.757390000000     0.706380000000     0.609800000000     0.0427905  
C152     C      0.702610000000     0.756090000000     0.613110000000     0.141633   
C153     C      0.709630000000     0.228050000000     0.886550000000     0.0362933  
C154     C      0.761360000000     0.280550000000     0.887320000000     0.0123028  
C155     C      0.730950000000     0.207550000000     0.855930000000     0.0409945  
C156     C      0.783510000000     0.259730000000     0.857040000000     0.141447   
C157     C      0.728770000000     0.207010000000     0.638040000000     0.0376038  
C158     C      0.785780000000     0.253540000000     0.633730000000     0.0126647  
C159     C      0.709810000000     0.226890000000     0.605010000000     0.0421496  
C160     C      0.767330000000     0.273290000000     0.600080000000     0.143254   
C161     C      0.666430000000     0.514100000000     0.462800000000     0.0377571  
C162     C      0.684120000000     0.513740000000     0.032040000000     0.0126943  
C163     C      0.667680000000     0.470510000000     0.962610000000     0.0423757  
C164     C      0.686170000000     0.469910000000     0.032010000000     0.14243    
C165     C      0.228890000000     0.709790000000     0.897820000000     0.0373693  
C166     C      0.278640000000     0.763990000000     0.902140000000     0.0118423  
C167     C      0.208700000000     0.730960000000     0.866280000000     0.0419292  
C168     C      0.258140000000     0.785890000000     0.870830000000     0.139773   
C169     C      0.259370000000     0.776470000000     0.647920000000     0.0363557  
C170     C      0.208910000000     0.722880000000     0.651540000000     0.0114372  
C171     C      0.279690000000     0.755180000000     0.617170000000     0.0413519  
C172     C      0.229520000000     0.700840000000     0.621030000000     0.139628   
C173     C      0.471390000000     0.674000000000     0.970740000000     0.0368925  
C174     C      0.472470000000     0.666760000000     0.541610000000     0.0115     
C175     C      0.515020000000     0.672550000000     0.970320000000     0.0416711  
C176     C      0.516290000000     0.664440000000     0.541460000000     0.14147    
C177     C      0.275700000000     0.225450000000     0.903420000000     0.0385819  
C178     C      0.225290000000     0.279230000000     0.902460000000     0.012611   
C179     C      0.254400000000     0.205370000000     0.872220000000     0.0432104  
C180     C      0.203250000000     0.258950000000     0.871460000000     0.142512   
C181     C      0.231600000000     0.278540000000     0.618610000000     0.0367154  
C182     C      0.287600000000     0.230730000000     0.622850000000     0.0117514  
C183     C      0.212260000000     0.258460000000     0.651000000000     0.0423846  
C184     C      0.268750000000     0.210740000000     0.655950000000     0.141792   
C185     C      0.518280000000     0.315610000000     0.035260000000     0.0353074  
C186     C      0.515940000000     0.307820000000     0.464580000000     0.0106802  
C187     C      0.474680000000     0.314480000000     0.036430000000     0.0403989  
C188     C      0.472060000000     0.305720000000     0.965520000000     0.139356   
C189     C      0.318020000000     0.471240000000     0.541370000000     0.0366568  
C190     C      0.319610000000     0.470290000000     0.970260000000     0.0120767  
C191     C      0.318370000000     0.514850000000     0.540500000000     0.0418781  
C192     C      0.320780000000     0.514140000000     0.969070000000     0.140291   
H1       H      0.176060000000     0.030600000000     0.317810000000     0.0554304  
H2       H      0.174060000000     0.955460000000     0.318020000000     0.0573921  
H3       H      0.175180000000     0.955210000000     0.189310000000     0.0744465  
H4       H      0.956390000000     0.815210000000     0.189170000000     0.0522735  
H5       H      0.031750000000     0.817440000000     0.189500000000     0.0530021  
H6       H      0.033120000000     0.808080000000     0.317990000000     0.0751014  
H7       H      0.810170000000     0.029520000000     0.308960000000     0.0525288  
H8       H      0.812240000000     0.954360000000     0.310410000000     0.0534934  
H9       H      0.815110000000     0.952030000000     0.181760000000     0.0739156  
H10      H      0.034040000000     0.176290000000     0.193940000000     0.054718   
H11      H      0.958850000000     0.174040000000     0.190510000000     0.056317   
H12      H      0.953070000000     0.164060000000     0.318800000000     0.0777036  
H13      H      0.680620000000     0.768460000000     0.401050000000     0.0530162  
H14      H      0.714130000000     0.803300000000     0.345310000000     0.0530605  
H15      H      0.814190000000     0.715190000000     0.350460000000     0.0789781  
H16      H      0.772030000000     0.678890000000     0.097120000000     0.0567277  
H17      H      0.808450000000     0.714070000000     0.150920000000     0.0551135  
H18      H      0.710430000000     0.804170000000     0.157260000000     0.0746523  
H19      H      0.717240000000     0.178980000000     0.344350000000     0.0521244  
H20      H      0.680810000000     0.214260000000     0.397490000000     0.0528308  
H21      H      0.774660000000     0.308970000000     0.399700000000     0.078518   
H22      H      0.679500000000     0.215360000000     0.095170000000     0.0521739  
H23      H      0.712610000000     0.180830000000     0.151920000000     0.0545947  
H24      H      0.816290000000     0.264300000000     0.143840000000     0.0779522  
H25      H      0.660380000000     0.454960000000     0.434430000000     0.05285    
H26      H      0.658720000000     0.530260000000     0.934800000000     0.0543065  
H27      H      0.691690000000     0.530000000000     0.559790000000     0.0782862  
H28      H      0.181390000000     0.716200000000     0.352920000000     0.0544112  
H29      H      0.216130000000     0.680000000000     0.407620000000     0.0572759  
H30      H      0.305780000000     0.778290000000     0.416270000000     0.0741385  
H31      H      0.307330000000     0.769660000000     0.104380000000     0.0533054  
H32      H      0.272400000000     0.806060000000     0.157730000000     0.0548576  
H33      H      0.181420000000     0.708870000000     0.165130000000     0.0741304  
H34      H      0.530270000000     0.675320000000     0.441270000000     0.0526314  
H35      H      0.454930000000     0.677430000000     0.442140000000     0.0549645  
H36      H      0.456550000000     0.663680000000     0.070320000000     0.0746871  
H37      H      0.267580000000     0.176420000000     0.361160000000     0.0566455  
H38      H      0.304020000000     0.211020000000     0.415240000000     0.0576738  
H39      H      0.212560000000     0.308080000000     0.414260000000     0.0762006  
H40      H      0.182250000000     0.270530000000     0.160610000000     0.0553824  
H41      H      0.215930000000     0.305280000000     0.104960000000     0.0543605  
H42      H      0.317820000000     0.219470000000     0.112880000000     0.0749999  
H43      H      0.459970000000     0.317790000000     0.565650000000     0.0520776  
H44      H      0.535230000000     0.319310000000     0.563520000000     0.0530034  
H45      H      0.531410000000     0.304230000000     0.935760000000     0.0736873  
H46      H      0.317480000000     0.530880000000     0.069230000000     0.0562209  
H47      H      0.317240000000     0.455610000000     0.070550000000     0.0533159  
H48      H      0.320850000000     0.453560000000     0.441900000000     0.0758873  
H49      H      0.176060000000     0.030600000000     0.817810000000     0.0554444  
H50      H      0.174060000000     0.955460000000     0.818020000000     0.0573899  
H51      H      0.175180000000     0.955210000000     0.689310000000     0.0744492  
H52      H      0.956390000000     0.815210000000     0.689170000000     0.0522729  
H53      H      0.031750000000     0.817440000000     0.689500000000     0.053003   
H54      H      0.033120000000     0.808080000000     0.817990000000     0.0751123  
H55      H      0.810170000000     0.029520000000     0.808960000000     0.0525517  
H56      H      0.812240000000     0.954360000000     0.810400000000     0.0535013  
H57      H      0.815110000000     0.952030000000     0.681760000000     0.0739337  
H58      H      0.034040000000     0.176290000000     0.693940000000     0.0547206  
H59      H      0.958840000000     0.174030000000     0.690510000000     0.056331   
H60      H      0.953060000000     0.164060000000     0.818800000000     0.0776869  
H61      H      0.680620000000     0.768460000000     0.901050000000     0.0530197  
H62      H      0.714140000000     0.803300000000     0.845310000000     0.0530904  
H63      H      0.814190000000     0.715190000000     0.850460000000     0.0789767  
H64      H      0.772020000000     0.678890000000     0.597120000000     0.0567432  
H65      H      0.808450000000     0.714080000000     0.650920000000     0.0551228  
H66      H      0.710430000000     0.804170000000     0.657260000000     0.0746539  
H67      H      0.717240000000     0.178980000000     0.844350000000     0.0521294  
H68      H      0.680810000000     0.214260000000     0.897490000000     0.0528441  
H69      H      0.774660000000     0.308970000000     0.899700000000     0.0785328  
H70      H      0.679500000000     0.215360000000     0.595170000000     0.0521711  
H71      H      0.712610000000     0.180830000000     0.651920000000     0.0545984  
H72      H      0.816290000000     0.264300000000     0.643840000000     0.0779447  
H73      H      0.660380000000     0.454970000000     0.934430000000     0.052834   
H74      H      0.658720000000     0.530260000000     0.434800000000     0.0543149  
H75      H      0.691690000000     0.530000000000     0.059790000000     0.0782855  
H76      H      0.181390000000     0.716200000000     0.852910000000     0.0544241  
H77      H      0.216130000000     0.680000000000     0.907620000000     0.0572913  
H78      H      0.305780000000     0.778290000000     0.916270000000     0.0741589  
H79      H      0.307330000000     0.769660000000     0.604380000000     0.0533062  
H80      H      0.272400000000     0.806050000000     0.657730000000     0.0548638  
H81      H      0.181420000000     0.708860000000     0.665130000000     0.0741244  
H82      H      0.530270000000     0.675320000000     0.941270000000     0.0526274  
H83      H      0.454930000000     0.677430000000     0.942140000000     0.0549618  
H84      H      0.456550000000     0.663680000000     0.570320000000     0.0747016  
H85      H      0.267580000000     0.176420000000     0.861160000000     0.0566777  
H86      H      0.304020000000     0.211020000000     0.915240000000     0.057683   
H87      H      0.212560000000     0.308080000000     0.914260000000     0.0761921  
H88      H      0.182250000000     0.270530000000     0.660610000000     0.0553714  
H89      H      0.215930000000     0.305280000000     0.604960000000     0.054363   
H90      H      0.317820000000     0.219470000000     0.612880000000     0.0750039  
H91      H      0.459970000000     0.317790000000     0.065650000000     0.0520695  
H92      H      0.535230000000     0.319310000000     0.063520000000     0.0530172  
H93      H      0.531410000000     0.304230000000     0.435750000000     0.07367    
H94      H      0.317480000000     0.530880000000     0.569230000000     0.0562157  
H95      H      0.317240000000     0.455610000000     0.570550000000     0.0533159  
H96      H      0.320850000000     0.453560000000     0.941900000000     0.075894   
In1      In     0.324360000000     0.321800000000     0.508370000000     2.43147    
In2      In     0.323050000000     0.664100000000     0.507330000000     2.437      
In3      In     0.665860000000     0.321190000000     0.495530000000     2.43836    
In4      In     0.665100000000     0.662430000000     0.499750000000     2.44517    
In5      In     0.823320000000     0.162100000000     0.247770000000     2.43817    
In6      In     0.823210000000     0.820750000000     0.249520000000     2.43444    
In7      In     0.165040000000     0.822780000000     0.254990000000     2.42915    
In8      In     0.165500000000     0.164200000000     0.258560000000     2.44403    
In9      In     0.324360000000     0.321800000000     0.008370000000     2.43109    
In10     In     0.323050000000     0.664100000000     0.007330000000     2.43639    
In11     In     0.665860000000     0.321200000000     0.995530000000     2.43889    
In12     In     0.665100000000     0.662430000000     0.999750000000     2.44545    
In13     In     0.823320000000     0.162100000000     0.747770000000     2.43807    
In14     In     0.823210000000     0.820740000000     0.749520000000     2.43432    
In15     In     0.165040000000     0.822780000000     0.754980000000     2.42901    
In16     In     0.165500000000     0.164200000000     0.758560000000     2.44394    
N1       N      0.173380000000     0.949920000000     0.253610000000    -0.168006   
N2       N      0.176050000000     0.037180000000     0.253190000000    -0.184553   
N3       N      0.182180000000     0.036250000000     0.179090000000    -0.0268654  
N4       N      0.037840000000     0.814010000000     0.253880000000    -0.168738   
N5       N      0.950530000000     0.811000000000     0.253640000000    -0.185245   
N6       N      0.952320000000     0.799970000000     0.327380000000    -0.0260442  
N7       N      0.814940000000     0.947800000000     0.246160000000    -0.169106   
N8       N      0.812060000000     0.035020000000     0.244290000000    -0.185656   
N9       N      0.808110000000     0.032810000000     0.169990000000    -0.0258224  
N10      N      0.950530000000     0.168080000000     0.254400000000    -0.167683   
N11      N      0.037800000000     0.171030000000     0.258590000000    -0.18529    
N12      N      0.033460000000     0.169720000000     0.332850000000    -0.026938   
N13      N      0.766300000000     0.761360000000     0.343450000000    -0.167988   
N14      N      0.727860000000     0.721170000000     0.408490000000    -0.185841   
N15      N      0.788360000000     0.673560000000     0.413670000000    -0.0254259  
N16      N      0.762390000000     0.762120000000     0.157510000000    -0.168501   
N17      N      0.719800000000     0.721180000000     0.095420000000    -0.183954   
N18      N      0.661300000000     0.770650000000     0.102980000000    -0.0268866  
N19      N      0.724860000000     0.264480000000     0.402120000000    -0.167955   
N20      N      0.767590000000     0.223350000000     0.340810000000    -0.185258   
N21      N      0.823590000000     0.276100000000     0.345670000000    -0.0261852  
N22      N      0.766530000000     0.220570000000     0.152430000000    -0.167696   
N23      N      0.728530000000     0.260380000000     0.086400000000    -0.184959   
N24      N      0.791010000000     0.305000000000     0.079510000000    -0.0249502  
N25      N      0.674010000000     0.535520000000     0.997630000000    -0.167238   
N26      N      0.676370000000     0.448310000000     0.497260000000    -0.185058   
N27      N      0.700960000000     0.449090000000     0.567980000000    -0.0267916  
N28      N      0.263940000000     0.726210000000     0.415470000000    -0.167674   
N29      N      0.223500000000     0.768560000000     0.352220000000    -0.184841   
N30      N      0.272810000000     0.827110000000     0.360880000000    -0.0260114  
N31      N      0.223910000000     0.760430000000     0.164820000000    -0.168747   
N32      N      0.264590000000     0.717830000000     0.103140000000    -0.185324   
N33      N      0.214470000000     0.659840000000     0.111140000000    -0.0260251  
N34      N      0.450270000000     0.670790000000     0.006330000000    -0.168258   
N35      N      0.537610000000     0.667690000000     0.505440000000    -0.185196   
N36      N      0.537320000000     0.656500000000     0.079180000000    -0.0248017  
N37      N      0.261270000000     0.262440000000     0.418230000000    -0.167783   
N38      N      0.218630000000     0.222220000000     0.355700000000    -0.184443   
N39      N      0.164010000000     0.276500000000     0.358490000000    -0.0271256  
N40      N      0.269010000000     0.264410000000     0.104400000000    -0.168323   
N41      N      0.230240000000     0.224220000000     0.169320000000    -0.184448   
N42      N      0.291630000000     0.178000000000     0.176170000000    -0.0250478  
N43      N      0.538740000000     0.312950000000     0.999300000000    -0.168986   
N44      N      0.451430000000     0.310610000000     0.501670000000    -0.185174   
N45      N      0.450190000000     0.296310000000     0.428640000000    -0.025789   
N46      N      0.318840000000     0.449100000000     0.006280000000    -0.168815   
N47      N      0.319710000000     0.536460000000     0.504580000000    -0.184776   
N48      N      0.325490000000     0.534200000000     0.430460000000    -0.0252968  
N49      N      0.173380000000     0.949920000000     0.753610000000    -0.168023   
N50      N      0.176050000000     0.037180000000     0.753190000000    -0.184544   
N51      N      0.182180000000     0.036250000000     0.679090000000    -0.0268644  
N52      N      0.037840000000     0.814000000000     0.753880000000    -0.168731   
N53      N      0.950530000000     0.811000000000     0.753640000000    -0.185256   
N54      N      0.952320000000     0.799970000000     0.827370000000    -0.0260819  
N55      N      0.814940000000     0.947800000000     0.746170000000    -0.169054   
N56      N      0.812060000000     0.035020000000     0.744290000000    -0.185606   
N57      N      0.808100000000     0.032810000000     0.669990000000    -0.0258111  
N58      N      0.950530000000     0.168080000000     0.754400000000    -0.167659   
N59      N      0.037800000000     0.171030000000     0.758590000000    -0.185258   
N60      N      0.033460000000     0.169720000000     0.832850000000    -0.0269489  
N61      N      0.766310000000     0.761360000000     0.843450000000    -0.168002   
N62      N      0.727860000000     0.721170000000     0.908490000000    -0.185887   
N63      N      0.788360000000     0.673560000000     0.913670000000    -0.0254307  
N64      N      0.762390000000     0.762120000000     0.657510000000    -0.168499   
N65      N      0.719800000000     0.721180000000     0.595420000000    -0.183923   
N66      N      0.661300000000     0.770650000000     0.602980000000    -0.0268851  
N67      N      0.724850000000     0.264480000000     0.902120000000    -0.168007   
N68      N      0.767590000000     0.223350000000     0.840810000000    -0.185301   
N69      N      0.823590000000     0.276100000000     0.845670000000    -0.0262005  
N70      N      0.766540000000     0.220570000000     0.652430000000    -0.167758   
N71      N      0.728540000000     0.260380000000     0.586400000000    -0.184952   
N72      N      0.791010000000     0.305000000000     0.579510000000    -0.0249556  
N73      N      0.674010000000     0.535530000000     0.497630000000    -0.167264   
N74      N      0.676370000000     0.448310000000     0.997260000000    -0.185026   
N75      N      0.700960000000     0.449090000000     0.067980000000    -0.0267799  
N76      N      0.263940000000     0.726210000000     0.915460000000    -0.16759    
N77      N      0.223500000000     0.768560000000     0.852220000000    -0.184818   
N78      N      0.272810000000     0.827110000000     0.860880000000    -0.0260124  
N79      N      0.223910000000     0.760430000000     0.664820000000    -0.168743   
N80      N      0.264590000000     0.717830000000     0.603140000000    -0.185328   
N81      N      0.214470000000     0.659840000000     0.611140000000    -0.0260242  
N82      N      0.450270000000     0.670790000000     0.506330000000    -0.168224   
N83      N      0.537610000000     0.667690000000     0.005440000000    -0.185224   
N84      N      0.537320000000     0.656500000000     0.579180000000    -0.0248063  
N85      N      0.261270000000     0.262440000000     0.918230000000    -0.167792   
N86      N      0.218620000000     0.222220000000     0.855700000000    -0.184458   
N87      N      0.164010000000     0.276500000000     0.858490000000    -0.0271116  
N88      N      0.269010000000     0.264410000000     0.604400000000    -0.168321   
N89      N      0.230240000000     0.224220000000     0.669310000000    -0.184463   
N90      N      0.291630000000     0.178000000000     0.676170000000    -0.0250534  
N91      N      0.538740000000     0.312950000000     0.499300000000    -0.16904    
N92      N      0.451430000000     0.310610000000     0.001670000000    -0.185244   
N93      N      0.450190000000     0.296310000000     0.928640000000    -0.0258177  
N94      N      0.318840000000     0.449100000000     0.506280000000    -0.168798   
N95      N      0.319710000000     0.536460000000     0.004580000000    -0.184757   
N96      N      0.325490000000     0.534200000000     0.930460000000    -0.0252863  
O1       O      0.272020000000     0.315390000000     0.054650000000    -0.490979   
O2       O      0.322030000000     0.271680000000     0.057820000000    -0.487572   
O3       O      0.270380000000     0.316610000000     0.463160000000    -0.487702   
O4       O      0.320890000000     0.385310000000     0.539590000000    -0.491898   
O5       O      0.385040000000     0.315520000000     0.973230000000    -0.473859   
O6       O      0.320820000000     0.384640000000     0.975470000000    -0.487663   
O7       O      0.315550000000     0.267860000000     0.464350000000    -0.48534    
O8       O      0.389470000000     0.316320000000     0.537070000000    -0.491442   
O9       O      0.271110000000     0.670580000000     0.459950000000    -0.483968   
O10      O      0.316280000000     0.719250000000     0.463610000000    -0.489635   
O11      O      0.269810000000     0.668060000000     0.052760000000    -0.476287   
O12      O      0.321490000000     0.599820000000     0.037860000000    -0.488349   
O13      O      0.385510000000     0.671510000000     0.474770000000    -0.485878   
O14      O      0.318080000000     0.602050000000     0.474030000000    -0.472593   
O15      O      0.317930000000     0.713430000000     0.056480000000    -0.494381   
O16      O      0.386700000000     0.666540000000     0.038770000000    -0.489348   
O17      O      0.673310000000     0.267480000000     0.041120000000    -0.493473   
O18      O      0.719800000000     0.314640000000     0.040330000000    -0.46864    
O19      O      0.717380000000     0.317670000000     0.448300000000    -0.48407    
O20      O      0.601700000000     0.314270000000     0.465460000000    -0.491822   
O21      O      0.674310000000     0.383040000000     0.028030000000    -0.473121   
O22      O      0.603900000000     0.319050000000     0.029400000000    -0.492749   
O23      O      0.671630000000     0.269470000000     0.448680000000    -0.490921   
O24      O      0.667630000000     0.385230000000     0.464340000000    -0.491814   
O25      O      0.714970000000     0.667460000000     0.049180000000    -0.4824     
O26      O      0.669920000000     0.715960000000     0.044460000000    -0.473076   
O27      O      0.718470000000     0.667130000000     0.454650000000    -0.481588   
O28      O      0.677690000000     0.599260000000     0.529770000000    -0.480682   
O29      O      0.603890000000     0.664500000000     0.034310000000    -0.474085   
O30      O      0.662500000000     0.599790000000     0.967150000000    -0.490556   
O31      O      0.673060000000     0.715270000000     0.453520000000    -0.494777   
O32      O      0.600160000000     0.667790000000     0.470510000000    -0.493064   
O33      O      0.769300000000     0.169950000000     0.202590000000    -0.489377   
O34      O      0.820230000000     0.212480000000     0.198850000000    -0.485659   
O35      O      0.773220000000     0.168360000000     0.296140000000    -0.491636   
O36      O      0.812740000000     0.098400000000     0.277500000000    -0.492264   
O37      O      0.885050000000     0.162470000000     0.283090000000    -0.486935   
O38      O      0.821460000000     0.100060000000     0.214200000000    -0.478248   
O39      O      0.817820000000     0.217040000000     0.290950000000    -0.47567    
O40      O      0.887860000000     0.167820000000     0.219190000000    -0.484838   
O41      O      0.817620000000     0.769170000000     0.202410000000    -0.488527   
O42      O      0.769120000000     0.814530000000     0.204670000000    -0.492405   
O43      O      0.818960000000     0.768370000000     0.296500000000    -0.484169   
O44      O      0.885470000000     0.818080000000     0.283300000000    -0.476245   
O45      O      0.820600000000     0.883290000000     0.215780000000    -0.492315   
O46      O      0.886990000000     0.813330000000     0.219540000000    -0.490375   
O47      O      0.770620000000     0.813990000000     0.295470000000    -0.489419   
O48      O      0.817160000000     0.884300000000     0.279800000000    -0.49063    
O49      O      0.170450000000     0.772780000000     0.304350000000    -0.489391   
O50      O      0.218190000000     0.818630000000     0.301300000000    -0.472999   
O51      O      0.171240000000     0.767870000000     0.211650000000    -0.491479   
O52      O      0.102020000000     0.816410000000     0.286300000000    -0.488396   
O53      O      0.169670000000     0.885760000000     0.222110000000    -0.487238   
O54      O      0.101830000000     0.819720000000     0.222210000000    -0.490946   
O55      O      0.217040000000     0.815890000000     0.208560000000    -0.4891     
O56      O      0.169400000000     0.885990000000     0.286250000000    -0.485867   
O57      O      0.174500000000     0.217520000000     0.213140000000    -0.488924   
O58      O      0.220390000000     0.169810000000     0.215090000000    -0.472088   
O59      O      0.213550000000     0.168270000000     0.309750000000    -0.485594   
O60      O      0.102300000000     0.162160000000     0.290170000000    -0.476896   
O61      O      0.166700000000     0.102740000000     0.223900000000    -0.474402   
O62      O      0.102230000000     0.173730000000     0.227150000000    -0.490855   
O63      O      0.169800000000     0.217670000000     0.303650000000    -0.473203   
O64      O      0.175580000000     0.100000000000     0.287360000000    -0.486833   
O65      O      0.159620000000     0.025060000000     0.148120000000    -0.0837575  
O66      O      0.214900000000     0.059710000000     0.173230000000    -0.0640925  
O67      O      0.963530000000     0.820710000000     0.359340000000    -0.0838687  
O68      O      0.929350000000     0.766650000000     0.331680000000    -0.0697973  
O69      O      0.775290000000     0.055690000000     0.162200000000    -0.0749118  
O70      O      0.831890000000     0.021410000000     0.140320000000    -0.0852292  
O71      O      0.022210000000     0.142890000000     0.360440000000    -0.0815169  
O72      O      0.054530000000     0.202680000000     0.343560000000    -0.0586402  
O73      O      0.801400000000     0.678000000000     0.450720000000    -0.0747381  
O74      O      0.803670000000     0.643450000000     0.392100000000    -0.0792033  
O75      O      0.654770000000     0.810370000000     0.096900000000    -0.0820146  
O76      O      0.629360000000     0.746030000000     0.108380000000    -0.0626582  
O77      O      0.857140000000     0.254060000000     0.352710000000    -0.0676904  
O78      O      0.827420000000     0.315660000000     0.336990000000    -0.0773686  
O79      O      0.802150000000     0.299210000000     0.042250000000    -0.0712663  
O80      O      0.808740000000     0.334730000000     0.100090000000    -0.0709977  
O81      O      0.686670000000     0.460060000000     0.103030000000    -0.0794483  
O82      O      0.734310000000     0.425820000000     0.566500000000    -0.058854   
O83      O      0.312600000000     0.833570000000     0.355600000000    -0.0834269  
O84      O      0.248190000000     0.859070000000     0.365760000000    -0.0732831  
O85      O      0.174650000000     0.653860000000     0.105020000000    -0.0826766  
O86      O      0.238700000000     0.627580000000     0.116850000000    -0.0734065  
O87      O      0.555600000000     0.620610000000     0.085270000000    -0.0764271  
O88      O      0.530050000000     0.680470000000     0.109900000000    -0.0755664  
O89      O      0.161610000000     0.316130000000     0.349570000000    -0.0781571  
O90      O      0.129670000000     0.255520000000     0.364270000000    -0.0596992  
O91      O      0.303130000000     0.182780000000     0.213640000000    -0.0757051  
O92      O      0.308500000000     0.148260000000     0.155210000000    -0.076887   
O93      O      0.427370000000     0.262680000000     0.926520000000    -0.0727422  
O94      O      0.459940000000     0.315920000000     0.395450000000    -0.0843827  
O95      O      0.300100000000     0.524770000000     0.401000000000    -0.080173   
O96      O      0.360100000000     0.553880000000     0.422320000000    -0.0786968  
O97      O      0.272020000000     0.315390000000     0.554650000000    -0.491016   
O98      O      0.322030000000     0.271680000000     0.557820000000    -0.487582   
O99      O      0.270380000000     0.316610000000     0.963170000000    -0.487646   
O100     O      0.320890000000     0.385310000000     0.039590000000    -0.491848   
O101     O      0.385030000000     0.315510000000     0.473230000000    -0.473989   
O102     O      0.320820000000     0.384640000000     0.475470000000    -0.487815   
O103     O      0.315550000000     0.267860000000     0.964350000000    -0.485254   
O104     O      0.389480000000     0.316320000000     0.037070000000    -0.491375   
O105     O      0.271110000000     0.670570000000     0.959950000000    -0.483764   
O106     O      0.316280000000     0.719250000000     0.963600000000    -0.48943    
O107     O      0.269810000000     0.668060000000     0.552760000000    -0.476427   
O108     O      0.321490000000     0.599820000000     0.537860000000    -0.488452   
O109     O      0.385510000000     0.671510000000     0.974770000000    -0.485722   
O110     O      0.318080000000     0.602040000000     0.974020000000    -0.472176   
O111     O      0.317930000000     0.713430000000     0.556480000000    -0.494313   
O112     O      0.386700000000     0.666540000000     0.538770000000    -0.489423   
O113     O      0.673310000000     0.267480000000     0.541120000000    -0.493484   
O114     O      0.719800000000     0.314640000000     0.540330000000    -0.468561   
O115     O      0.717370000000     0.317670000000     0.948300000000    -0.484249   
O116     O      0.601700000000     0.314270000000     0.965460000000    -0.491799   
O117     O      0.674310000000     0.383040000000     0.528030000000    -0.472858   
O118     O      0.603900000000     0.319050000000     0.529400000000    -0.49252    
O119     O      0.671630000000     0.269470000000     0.948680000000    -0.490884   
O120     O      0.667630000000     0.385230000000     0.964340000000    -0.491977   
O121     O      0.714970000000     0.667460000000     0.549180000000    -0.482299   
O122     O      0.669920000000     0.715960000000     0.544460000000    -0.473088   
O123     O      0.718470000000     0.667120000000     0.954650000000    -0.481483   
O124     O      0.677690000000     0.599250000000     0.029770000000    -0.4807     
O125     O      0.603890000000     0.664500000000     0.534310000000    -0.474047   
O126     O      0.662500000000     0.599790000000     0.467150000000    -0.490559   
O127     O      0.673070000000     0.715270000000     0.953520000000    -0.494801   
O128     O      0.600160000000     0.667790000000     0.970510000000    -0.493015   
O129     O      0.769300000000     0.169950000000     0.702590000000    -0.489444   
O130     O      0.820220000000     0.212480000000     0.698850000000    -0.485804   
O131     O      0.773230000000     0.168360000000     0.796140000000    -0.491762   
O132     O      0.812740000000     0.098400000000     0.777500000000    -0.492256   
O133     O      0.885050000000     0.162470000000     0.783090000000    -0.487      
O134     O      0.821460000000     0.100060000000     0.714190000000    -0.477953   
O135     O      0.817820000000     0.217040000000     0.790950000000    -0.475683   
O136     O      0.887870000000     0.167820000000     0.719190000000    -0.484847   
O137     O      0.817620000000     0.769170000000     0.702410000000    -0.488613   
O138     O      0.769120000000     0.814530000000     0.704670000000    -0.492391   
O139     O      0.818960000000     0.768370000000     0.796500000000    -0.484269   
O140     O      0.885480000000     0.818080000000     0.783300000000    -0.476256   
O141     O      0.820590000000     0.883290000000     0.715780000000    -0.492261   
O142     O      0.886990000000     0.813330000000     0.719540000000    -0.49033    
O143     O      0.770620000000     0.813990000000     0.795470000000    -0.489428   
O144     O      0.817170000000     0.884300000000     0.779800000000    -0.490574   
O145     O      0.170450000000     0.772780000000     0.804350000000    -0.489255   
O146     O      0.218190000000     0.818630000000     0.801300000000    -0.472974   
O147     O      0.171240000000     0.767870000000     0.711650000000    -0.491543   
O148     O      0.102020000000     0.816410000000     0.786300000000    -0.488313   
O149     O      0.169670000000     0.885770000000     0.722110000000    -0.487255   
O150     O      0.101830000000     0.819720000000     0.722210000000    -0.491005   
O151     O      0.217040000000     0.815890000000     0.708560000000    -0.489181   
O152     O      0.169400000000     0.885990000000     0.786250000000    -0.485813   
O153     O      0.174500000000     0.217520000000     0.713140000000    -0.488877   
O154     O      0.220390000000     0.169810000000     0.715090000000    -0.472036   
O155     O      0.213550000000     0.168270000000     0.809750000000    -0.48562    
O156     O      0.102300000000     0.162160000000     0.790170000000    -0.476877   
O157     O      0.166690000000     0.102740000000     0.723900000000    -0.474378   
O158     O      0.102230000000     0.173730000000     0.727150000000    -0.490843   
O159     O      0.169800000000     0.217670000000     0.803660000000    -0.473182   
O160     O      0.175580000000     0.100000000000     0.787360000000    -0.486806   
O161     O      0.159620000000     0.025060000000     0.648120000000    -0.0837549  
O162     O      0.214900000000     0.059710000000     0.673230000000    -0.0641013  
O163     O      0.963530000000     0.820710000000     0.859340000000    -0.0838266  
O164     O      0.929350000000     0.766650000000     0.831680000000    -0.0697755  
O165     O      0.775300000000     0.055690000000     0.662200000000    -0.0749056  
O166     O      0.831890000000     0.021410000000     0.640320000000    -0.0852337  
O167     O      0.022210000000     0.142890000000     0.860440000000    -0.0814843  
O168     O      0.054530000000     0.202690000000     0.843550000000    -0.0586252  
O169     O      0.801400000000     0.678000000000     0.950720000000    -0.0746911  
O170     O      0.803670000000     0.643450000000     0.892100000000    -0.0791855  
O171     O      0.654770000000     0.810370000000     0.596900000000    -0.0820075  
O172     O      0.629360000000     0.746030000000     0.608380000000    -0.0626551  
O173     O      0.857140000000     0.254060000000     0.852710000000    -0.0676662  
O174     O      0.827420000000     0.315660000000     0.836990000000    -0.077356   
O175     O      0.802150000000     0.299210000000     0.542250000000    -0.0712543  
O176     O      0.808740000000     0.334730000000     0.600090000000    -0.070995   
O177     O      0.686670000000     0.460060000000     0.603040000000    -0.0794382  
O178     O      0.734310000000     0.425810000000     0.066500000000    -0.0588633  
O179     O      0.312600000000     0.833570000000     0.855600000000    -0.0834077  
O180     O      0.248190000000     0.859070000000     0.865760000000    -0.0732605  
O181     O      0.174650000000     0.653860000000     0.605020000000    -0.0826726  
O182     O      0.238700000000     0.627580000000     0.616850000000    -0.0734051  
O183     O      0.555600000000     0.620610000000     0.585270000000    -0.0764152  
O184     O      0.530050000000     0.680470000000     0.609900000000    -0.0755616  
O185     O      0.161610000000     0.316120000000     0.849570000000    -0.0781466  
O186     O      0.129670000000     0.255520000000     0.864270000000    -0.0596716  
O187     O      0.303130000000     0.182780000000     0.713640000000    -0.075705   
O188     O      0.308500000000     0.148260000000     0.655210000000    -0.0768851  
O189     O      0.427360000000     0.262680000000     0.426510000000    -0.0727555  
O190     O      0.459940000000     0.315920000000     0.895440000000    -0.0843654  
O191     O      0.300100000000     0.524770000000     0.901010000000    -0.0801614  
O192     O      0.360100000000     0.553880000000     0.922320000000    -0.0786754  


