data_structure

_audit_creation_method RASPA-1.0
_audit_creation_date 2023-6-5
_audit_author_name 'Poobodin Mano'

_cell_length_a    43.6108
_cell_length_b    43.8804
_cell_length_c    23.9569
_cell_angle_alpha 89.7025
_cell_angle_beta  90.2975
_cell_angle_gamma 89.9995
_cell_volume      45844.1

_symmetry_cell_setting          triclinic
_symmetry_space_group_name_Hall 'P 1'
_symmetry_space_group_name_H-M  'P 1'
_symmetry_Int_Tables_number     1

_symmetry_equiv_pos_as_xyz 'x,y,z'

loop_
_atom_site_label
_atom_site_type_symbol
_atom_site_fract_x
_atom_site_fract_y
_atom_site_fract_z
_atom_site_charge
C1       C      0.332940000000     0.389910000000     0.998640000000     0.423905   
C2       C      0.305060000000     0.303860000000     0.907710000000     0.419253   
C3       C      0.397970000000     0.318240000000     0.974970000000     0.428645   
C4       C      0.315540000000     0.301300000000     0.087670000000     0.427539   
C5       C      0.319910000000     0.613950000000     0.994950000000     0.413792   
C6       C      0.295990000000     0.703520000000     0.076830000000     0.412668   
C7       C      0.386710000000     0.678850000000     0.989330000000     0.414985   
C8       C      0.299390000000     0.706570000000     0.904620000000     0.418854   
C9       C      0.622750000000     0.319100000000     0.956070000000     0.410124   
C10      C      0.711890000000     0.297250000000     0.877760000000     0.423831   
C11      C      0.691960000000     0.387810000000     0.966700000000     0.424576   
C12      C      0.711380000000     0.303000000000     0.055690000000     0.412209   
C13      C      0.685440000000     0.610790000000     0.995250000000     0.424929   
C14      C      0.699720000000     0.698730000000     0.904120000000     0.423333   
C15      C      0.612260000000     0.673610000000     0.988990000000     0.427698   
C16      C      0.697240000000     0.696930000000     0.088930000000     0.422734   
C17      C      0.825320000000     0.110220000000     0.469720000000     0.418576   
C18      C      0.806090000000     0.194600000000     0.557390000000     0.414743   
C19      C      0.894880000000     0.178360000000     0.454800000000     0.425546   
C20      C      0.809570000000     0.202580000000     0.378050000000     0.421861   
C21      C      0.888340000000     0.823440000000     0.500660000000     0.422912   
C22      C      0.799810000000     0.798400000000     0.584050000000     0.416762   
C23      C      0.822980000000     0.886150000000     0.481450000000     0.427242   
C24      C      0.797850000000     0.797250000000     0.407520000000     0.414766   
C25      C      0.114040000000     0.826070000000     0.493530000000     0.41408    
C26      C      0.199840000000     0.802160000000     0.400460000000     0.426274   
C27      C      0.182610000000     0.893800000000     0.488380000000     0.417057   
C28      C      0.202920000000     0.805180000000     0.577580000000     0.414378   
C29      C      0.119610000000     0.185080000000     0.480310000000     0.419352   
C30      C      0.205190000000     0.205230000000     0.586240000000     0.413109   
C31      C      0.186650000000     0.117680000000     0.502200000000     0.414549   
C32      C      0.209290000000     0.204840000000     0.404390000000     0.414463   
C33      C      0.216280000000     0.070530000000     0.502780000000     0.0576022  
C34      C      0.161680000000     0.070220000000     0.504920000000     0.0737001  
C35      C      0.216180000000     0.038490000000     0.499840000000    -0.0684743  
C36      C      0.207390000000     0.970510000000     0.527920000000    -0.0860113  
C37      C      0.161190000000     0.038570000000     0.502050000000    -0.081308   
C38      C      0.188110000000     0.988600000000     0.494550000000     0.0403751  
C39      C      0.188570000000     0.022340000000     0.498770000000     0.0330092  
C40      C      0.205480000000     0.938740000000     0.525000000000     0.0765514  
C41      C      0.166690000000     0.942430000000     0.455520000000     0.0766317  
C42      C      0.167770000000     0.974180000000     0.457780000000    -0.0865013  
C43      C      0.936660000000     0.843640000000     0.535620000000     0.0600816  
C44      C      0.935180000000     0.803670000000     0.468730000000     0.0780135  
C45      C      0.968860000000     0.842350000000     0.535500000000    -0.0700951  
C46      C      0.035930000000     0.826390000000     0.548350000000    -0.0855112  
C47      C      0.967090000000     0.802200000000     0.467990000000    -0.0801824  
C48      C      0.018550000000     0.821310000000     0.499880000000     0.0409916  
C49      C      0.984400000000     0.821690000000     0.501540000000     0.0353488  
C50      C      0.067870000000     0.827650000000     0.545520000000     0.0790844  
C51      C      0.066140000000     0.817880000000     0.448330000000     0.0794057  
C52      C      0.034130000000     0.816780000000     0.449520000000    -0.0845029  
C53      C      0.835590000000     0.933260000000     0.432180000000     0.0619119  
C54      C      0.808370000000     0.933540000000     0.518170000000     0.0797129  
C55      C      0.834160000000     0.965250000000     0.430620000000    -0.0699599  
C56      C      0.815050000000     0.031650000000     0.423130000000    -0.0849418  
C57      C      0.806960000000     0.965230000000     0.517370000000    -0.0806837  
C58      C      0.819840000000     0.015390000000     0.472910000000     0.0416064  
C59      C      0.820010000000     0.981510000000     0.473400000000     0.0359563  
C60      C      0.816490000000     0.063430000000     0.422990000000     0.0818641  
C61      C      0.826580000000     0.063570000000     0.520350000000     0.079213   
C62      C      0.825360000000     0.031790000000     0.522000000000    -0.0850806  
C63      C      0.944400000000     0.163330000000     0.417220000000     0.0611152  
C64      C      0.940110000000     0.202590000000     0.485020000000     0.0785867  
C65      C      0.976520000000     0.165480000000     0.420640000000    -0.0677545  
C66      C      0.043410000000     0.185050000000     0.415590000000    -0.0858469  
C67      C      0.971880000000     0.205240000000     0.488400000000    -0.0798911  
C68      C      0.024460000000     0.187430000000     0.462450000000     0.0415137  
C69      C      0.990520000000     0.186200000000     0.456820000000     0.0349175  
C70      C      0.075270000000     0.184820000000     0.422190000000     0.078751   
C71      C      0.070140000000     0.189800000000     0.520220000000     0.0791255  
C72      C      0.038250000000     0.190140000000     0.515150000000    -0.086045   
C73      C      0.695880000000     0.721410000000     0.811330000000     0.0572689  
C74      C      0.743820000000     0.717170000000     0.858880000000     0.0755137  
C75      C      0.710630000000     0.736410000000     0.767010000000    -0.0703628  
C76      C      0.744060000000     0.781870000000     0.693610000000    -0.0855642  
C77      C      0.758830000000     0.731660000000     0.814930000000    -0.0809324  
C78      C      0.757790000000     0.757010000000     0.720870000000     0.0408689  
C79      C      0.742230000000     0.741660000000     0.768420000000     0.0343463  
C80      C      0.758530000000     0.795520000000     0.648060000000     0.0785001  
C81      C      0.800080000000     0.760880000000     0.655970000000     0.0781701  
C82      C      0.786240000000     0.746660000000     0.701660000000    -0.0850672  
C83      C      0.719230000000     0.693090000000     0.182210000000     0.0567692  
C84      C      0.712740000000     0.741100000000     0.136800000000     0.074946   
C85      C      0.734050000000     0.707730000000     0.226840000000    -0.0706441  
C86      C      0.779950000000     0.741590000000     0.299010000000    -0.0850271  
C87      C      0.726990000000     0.756020000000     0.181110000000    -0.0809793  
C88      C      0.754020000000     0.754710000000     0.273780000000     0.0409637  
C89      C      0.738240000000     0.739310000000     0.226510000000     0.0342404  
C90      C      0.794340000000     0.756140000000     0.343720000000     0.0787509  
C91      C      0.758210000000     0.796490000000     0.339140000000     0.0790421  
C92      C      0.743240000000     0.782540000000     0.294360000000    -0.0848238  
C93      C      0.756420000000     0.288000000000     0.819550000000     0.0611095  
C94      C      0.709770000000     0.260620000000     0.806350000000     0.075347   
C95      C      0.769000000000     0.272960000000     0.773450000000    -0.0684755  
C96      C      0.796230000000     0.225280000000     0.697690000000    -0.0860576  
C97      C      0.722110000000     0.245170000000     0.761000000000    -0.0804873  
C98      C      0.765710000000     0.235230000000     0.695670000000     0.0413297  
C99      C      0.752000000000     0.251350000000     0.743900000000     0.0345091  
C100     C      0.809250000000     0.211370000000     0.651240000000     0.0790122  
C101     C      0.762460000000     0.216230000000     0.601070000000     0.0772876  
C102     C      0.748690000000     0.230240000000     0.646800000000    -0.0854536  
C103     C      0.812130000000     0.242060000000     0.306150000000     0.0589712  
C104     C      0.768490000000     0.209750000000     0.315400000000     0.0764729  
C105     C      0.797580000000     0.257140000000     0.261380000000    -0.0688972  
C106     C      0.770360000000     0.270130000000     0.146650000000    -0.0840963  
C107     C      0.753860000000     0.224410000000     0.271050000000    -0.0810491  
C108     C      0.753510000000     0.263490000000     0.194800000000     0.0409699  
C109     C      0.768390000000     0.248330000000     0.243390000000     0.0348908  
C110     C      0.755890000000     0.283550000000     0.100640000000     0.0783987  
C111     C      0.708540000000     0.284460000000     0.148900000000     0.0778552  
C112     C      0.722260000000     0.270910000000     0.195640000000    -0.0853528  
C113     C      0.695360000000     0.437680000000     0.921610000000     0.0605627  
C114     C      0.696280000000     0.432280000000     0.020620000000     0.0764917  
C115     C      0.695680000000     0.469510000000     0.927620000000    -0.0701025  
C116     C      0.711540000000     0.535620000000     0.950640000000    -0.083277   
C117     C      0.696980000000     0.463780000000     0.027200000000    -0.080405   
C118     C      0.695040000000     0.516480000000     0.986610000000     0.0438118  
C119     C      0.696220000000     0.482820000000     0.980470000000     0.0364775  
C120     C      0.708570000000     0.567210000000     0.954840000000     0.0843303  
C121     C      0.674050000000     0.561450000000     0.030340000000     0.0885504  
C122     C      0.676450000000     0.529800000000     0.027290000000    -0.0823525  
C123     C      0.297830000000     0.749460000000     0.839310000000     0.0565099  
C124     C      0.261860000000     0.708700000000     0.833790000000     0.0740716  
C125     C      0.284090000000     0.762980000000     0.792040000000    -0.0698709  
C126     C      0.262130000000     0.777930000000     0.674500000000    -0.0851883  
C127     C      0.247960000000     0.721900000000     0.787130000000    -0.0804651  
C128     C      0.244380000000     0.763760000000     0.715800000000     0.0414735  
C129     C      0.259060000000     0.749290000000     0.765500000000     0.0339228  
C130     C      0.247890000000     0.791670000000     0.628440000000     0.0804812  
C131     C      0.198970000000     0.777560000000     0.662710000000     0.0796137  
C132     C      0.212420000000     0.763700000000     0.709350000000    -0.0851338  
C133     C      0.210910000000     0.755620000000     0.348870000000     0.0570652  
C134     C      0.226950000000     0.804360000000     0.315870000000     0.0742507  
C135     C      0.223970000000     0.742150000000     0.301410000000    -0.0700319  
C136     C      0.239210000000     0.721230000000     0.183910000000    -0.0852508  
C137     C      0.240140000000     0.791310000000     0.268870000000    -0.0812076  
C138     C      0.253410000000     0.745480000000     0.211810000000     0.0404204  
C139     C      0.238790000000     0.759870000000     0.261110000000     0.0340083  
C140     C      0.253670000000     0.707560000000     0.138530000000     0.0777741  
C141     C      0.295770000000     0.741430000000     0.147190000000     0.0782039  
C142     C      0.281990000000     0.755600000000     0.192690000000    -0.0849266  
C143     C      0.563340000000     0.653900000000     0.955320000000     0.062707   
C144     C      0.565900000000     0.695720000000     0.018280000000     0.0783873  
C145     C      0.531230000000     0.656370000000     0.954590000000    -0.0688717  
C146     C      0.465350000000     0.676640000000     0.937300000000    -0.0836764  
C147     C      0.534040000000     0.698190000000     0.018470000000    -0.0797387  
C148     C      0.482290000000     0.680140000000     0.986720000000     0.0420077  
C149     C      0.516320000000     0.678460000000     0.986240000000     0.036264   
C150     C      0.433360000000     0.676670000000     0.938850000000     0.0812287  
C151     C      0.434370000000     0.684060000000     0.036840000000     0.0797373  
C152     C      0.466390000000     0.684210000000     0.036800000000    -0.084074   
C153     C      0.257590000000     0.294090000000     0.856100000000     0.0576484  
C154     C      0.305460000000     0.273470000000     0.827220000000     0.0759148  
C155     C      0.243230000000     0.279860000000     0.810360000000    -0.0692376  
C156     C      0.222520000000     0.262000000000     0.693230000000    -0.0848584  
C157     C      0.291550000000     0.259160000000     0.782020000000    -0.0792358  
C158     C      0.245040000000     0.246940000000     0.724880000000     0.0407324  
C159     C      0.260110000000     0.262190000000     0.773080000000     0.0345     
C160     C      0.209230000000     0.247580000000     0.647210000000     0.0780193  
C161     C      0.239630000000     0.203570000000     0.663330000000     0.0765108  
C162     C      0.253400000000     0.217290000000     0.709570000000    -0.0839232  
C163     C      0.301850000000     0.302140000000     0.185830000000     0.057829   
C164     C      0.290650000000     0.259260000000     0.128730000000     0.0773327  
C165     C      0.286150000000     0.288230000000     0.230250000000    -0.0699201  
C166     C      0.237550000000     0.262660000000     0.306910000000    -0.0846627  
C167     C      0.275190000000     0.245040000000     0.172450000000    -0.0803902  
C168     C      0.255450000000     0.245090000000     0.270780000000     0.0407532  
C169     C      0.272380000000     0.259650000000     0.223810000000     0.035078   
C170     C      0.222220000000     0.248790000000     0.351310000000     0.0782463  
C171     C      0.241220000000     0.200400000000     0.324760000000     0.0773355  
C172     C      0.257070000000     0.213550000000     0.280180000000    -0.084047   
C173     C      0.443250000000     0.321250000000     0.916570000000     0.0607425  
C174     C      0.446390000000     0.304440000000     0.011090000000     0.0788149  
C175     C      0.475390000000     0.320640000000     0.913280000000    -0.0703531  
C176     C      0.542160000000     0.337200000000     0.929530000000    -0.0836473  
C177     C      0.478290000000     0.303280000000     0.008310000000    -0.079443   
C178     C      0.527290000000     0.313080000000     0.956770000000     0.0411675  
C179     C      0.493220000000     0.312120000000     0.959440000000     0.0357505  
C180     C      0.574120000000     0.338510000000     0.928880000000     0.0783805  
C181     C      0.577260000000     0.292460000000     0.980810000000     0.0774744  
C182     C      0.545280000000     0.290410000000     0.982260000000    -0.0851872  
C183     C      0.349670000000     0.439240000000     0.034370000000     0.0624889  
C184     C      0.308900000000     0.435160000000     0.968200000000     0.0776215  
C185     C      0.346260000000     0.471090000000     0.033610000000    -0.0693677  
C186     C      0.323370000000     0.535770000000     0.048310000000    -0.0841883  
C187     C      0.305260000000     0.466730000000     0.967110000000    -0.078493   
C188     C      0.321000000000     0.518890000000     0.998960000000     0.0411097  
C189     C      0.324040000000     0.485110000000     0.000030000000     0.036595   
C190     C      0.322310000000     0.567560000000     0.046300000000     0.0781526  
C191     C      0.315820000000     0.566500000000     0.948010000000     0.0777664  
C192     C      0.316730000000     0.534650000000     0.948490000000    -0.0839447  
H1       H      0.220400000000     0.925440000000     0.552070000000     0.0343198  
H2       H      0.139610000000     0.081580000000     0.506520000000     0.0355071  
H3       H      0.152770000000     0.987380000000     0.430770000000     0.0578135  
H4       H      0.139320000000     0.026860000000     0.502490000000     0.0564987  
H5       H      0.223310000000     0.980810000000     0.557090000000     0.0611246  
H6       H      0.237550000000     0.026020000000     0.497840000000     0.0609447  
H7       H      0.150500000000     0.932150000000     0.426740000000     0.0333712  
H8       H      0.287200000000     0.055950000000     0.482900000000     0.15631    
H9       H      0.080440000000     0.831930000000     0.583870000000     0.0358816  
H10      H      0.922920000000     0.787780000000     0.442190000000     0.0386673  
H11      H      0.021740000000     0.813170000000     0.410840000000     0.0597758  
H12      H      0.978060000000     0.785570000000     0.441480000000     0.0588257  
H13      H      0.024990000000     0.829390000000     0.588430000000     0.0609163  
H14      H      0.981940000000     0.858200000000     0.560540000000     0.0632377  
H15      H      0.077310000000     0.814640000000     0.408460000000     0.037496   
H16      H      0.952520000000     0.910200000000     0.568320000000     0.155762   
H17      H      0.812960000000     0.075180000000     0.383540000000     0.0397489  
H18      H      0.797660000000     0.922150000000     0.553340000000     0.0395683  
H19      H      0.829510000000     0.020160000000     0.561310000000     0.0598927  
H20      H      0.795450000000     0.976880000000     0.551060000000     0.0579996  
H21      H      0.810220000000     0.019920000000     0.384390000000     0.0625671  
H22      H      0.844880000000     0.977710000000     0.396880000000     0.0651295  
H23      H      0.831340000000     0.075420000000     0.559050000000     0.034156   
H24      H      0.891060000000     0.948580000000     0.354670000000     0.157638   
H25      H      0.089160000000     0.182680000000     0.385020000000     0.0343203  
H26      H      0.926830000000     0.217560000000     0.511470000000     0.0406185  
H27      H      0.024490000000     0.191740000000     0.552540000000     0.0585619  
H28      H      0.981770000000     0.222090000000     0.516060000000     0.0590314  
H29      H      0.033720000000     0.183370000000     0.374000000000     0.0628162  
H30      H      0.990730000000     0.150650000000     0.395760000000     0.0611752  
H31      H      0.079900000000     0.191500000000     0.561820000000     0.0350263  
H32      H      0.965680000000     0.107390000000     0.341110000000     0.155877   
H33      H      0.747120000000     0.814660000000     0.628030000000     0.0359638  
H34      H      0.757840000000     0.710340000000     0.894340000000     0.0365636  
H35      H      0.797510000000     0.727300000000     0.721070000000     0.0589866  
H36      H      0.783330000000     0.735420000000     0.817950000000     0.0580409  
H37      H      0.722320000000     0.790920000000     0.707550000000     0.0614629  
H38      H      0.697660000000     0.743320000000     0.730450000000     0.0635784  
H39      H      0.821970000000     0.752080000000     0.642050000000     0.035294   
H40      H      0.652730000000     0.704570000000     0.712780000000     0.157397   
H41      H      0.814360000000     0.745280000000     0.362050000000     0.036565   
H42      H      0.705130000000     0.755150000000     0.102010000000     0.0361783  
H43      H      0.723060000000     0.793320000000     0.276600000000     0.0588664  
H44      H      0.729800000000     0.780520000000     0.179020000000     0.0582738  
H45      H      0.789330000000     0.720320000000     0.283960000000     0.06179    
H46      H      0.741770000000     0.694630000000     0.262650000000     0.0638138  
H47      H      0.749110000000     0.817940000000     0.354020000000     0.0366852  
H48      H      0.701430000000     0.650070000000     0.278700000000     0.156013   
H49      H      0.833000000000     0.204220000000     0.654330000000     0.0363206  
H50      H      0.686310000000     0.255180000000     0.817440000000     0.0352158  
H51      H      0.725100000000     0.237770000000     0.643330000000     0.0586794  
H52      H      0.708290000000     0.228270000000     0.739740000000     0.0567707  
H53      H      0.810050000000     0.228160000000     0.734990000000     0.0621771  
H54      H      0.792180000000     0.278020000000     0.760410000000     0.0624783  
H55      H      0.748700000000     0.213140000000     0.563690000000     0.033737   
H56      H      0.820620000000     0.322520000000     0.805270000000     0.159022   
H57      H      0.769670000000     0.288070000000     0.063950000000     0.0449468  
H58      H      0.756020000000     0.191300000000     0.335300000000     0.0376708  
H59      H      0.708500000000     0.266440000000     0.232300000000     0.058228   
H60      H      0.731390000000     0.216610000000     0.257940000000     0.0574517  
H61      H      0.794470000000     0.264430000000     0.144010000000     0.0649182  
H62      H      0.808920000000     0.275830000000     0.240280000000     0.0635045  
H63      H      0.684310000000     0.289820000000     0.150990000000     0.034995   
H64      H      0.854780000000     0.300140000000     0.290590000000     0.157577   
H65      H      0.721370000000     0.581280000000     0.925820000000     0.0381623  
H66      H      0.696450000000     0.418670000000     0.058560000000     0.037286   
H67      H      0.663080000000     0.515880000000     0.055610000000     0.0633677  
H68      H      0.697960000000     0.473130000000     0.068930000000     0.0598466  
H69      H      0.726580000000     0.526280000000     0.919210000000     0.0609642  
H70      H      0.694830000000     0.484090000000     0.891080000000     0.066722   
H71      H      0.658980000000     0.570870000000     0.061730000000     0.0452856  
H72      H      0.723120000000     0.457530000000     0.808130000000     0.157187   
H73      H      0.262390000000     0.802380000000     0.597360000000     0.0362487  
H74      H      0.252340000000     0.687250000000     0.848250000000     0.0375699  
H75      H      0.197770000000     0.753400000000     0.740550000000     0.0585028  
H76      H      0.228810000000     0.710300000000     0.767620000000     0.0581197  
H77      H      0.286920000000     0.778160000000     0.677320000000     0.0621175  
H78      H      0.292490000000     0.784550000000     0.776310000000     0.0628884  
H79      H      0.174160000000     0.777120000000     0.659420000000     0.037166   
H80      H      0.317670000000     0.817380000000     0.854160000000     0.155341   
H81      H      0.242000000000     0.688820000000     0.118130000000     0.0350457  
H82      H      0.228590000000     0.828950000000     0.319310000000     0.0354708  
H83      H      0.294000000000     0.774000000000     0.213360000000     0.0586078  
H84      H      0.251080000000     0.805980000000     0.238420000000     0.0570545  
H85      H      0.216920000000     0.712950000000     0.196740000000     0.061255   
H86      H      0.223300000000     0.717680000000     0.296320000000     0.0631874  
H87      H      0.318000000000     0.749790000000     0.133990000000     0.0384012  
H88      H      0.220780000000     0.688720000000     0.391010000000     0.156273   
H89      H      0.421080000000     0.673690000000     0.899780000000     0.0397591  
H90      H      0.578520000000     0.711900000000     0.043640000000     0.0385333  
H91      H      0.478580000000     0.686710000000     0.076020000000     0.0597462  
H92      H      0.523400000000     0.715750000000     0.043380000000     0.0592145  
H93      H      0.476730000000     0.673870000000     0.897560000000     0.0620972  
H94      H      0.517590000000     0.640450000000     0.930650000000     0.063928   
H95      H      0.422880000000     0.686860000000     0.076520000000     0.0363674  
H96      H      0.545260000000     0.609420000000     0.856010000000     0.159075   
H97      H      0.192100000000     0.260090000000     0.623450000000     0.0363226  
H98      H      0.330030000000     0.270340000000     0.831600000000     0.0464986  
H99      H      0.270370000000     0.204630000000     0.733340000000     0.0596951  
H100     H      0.305610000000     0.246080000000     0.753720000000     0.0598804  
H101     H      0.215590000000     0.285030000000     0.703190000000     0.0623315  
H102     H      0.218740000000     0.282020000000     0.804140000000     0.0629301  
H103     H      0.246790000000     0.180660000000     0.652710000000     0.0413964  
H104     H      0.189050000000     0.292980000000     0.895240000000     0.156036   
H105     H      0.208700000000     0.263210000000     0.378370000000     0.0358149  
H106     H      0.291420000000     0.247190000000     0.089360000000     0.037164   
H107     H      0.270910000000     0.199070000000     0.253900000000     0.0586894  
H108     H      0.264810000000     0.222980000000     0.165320000000     0.0578369  
H109     H      0.235100000000     0.287010000000     0.300760000000     0.0623028  
H110     H      0.285210000000     0.299370000000     0.270390000000     0.0642931  
H111     H      0.243210000000     0.175970000000     0.330830000000     0.0393004  
H112     H      0.338940000000     0.327710000000     0.284330000000     0.156923   
H113     H      0.584700000000     0.357780000000     0.907960000000     0.0416184  
H114     H      0.436050000000     0.298350000000     0.050700000000     0.0401956  
H115     H      0.534750000000     0.271140000000     0.003100000000     0.0579539  
H116     H      0.491170000000     0.296510000000     0.045110000000     0.0591261  
H117     H      0.529230000000     0.355430000000     0.909870000000     0.0651061  
H118     H      0.486610000000     0.326410000000     0.874440000000     0.0654715  
H119     H      0.590410000000     0.274640000000     0.001350000000     0.0349419  
H120     H      0.450240000000     0.303700000000     0.793770000000     0.154993   
H121     H      0.324600000000     0.579780000000     0.085330000000     0.0352423  
H122     H      0.293610000000     0.422080000000     0.941720000000     0.0461152  
H123     H      0.314990000000     0.522540000000     0.909330000000     0.0607388  
H124     H      0.287560000000     0.476640000000     0.940830000000     0.0606009  
H125     H      0.326140000000     0.524500000000     0.088350000000     0.0602978  
H126     H      0.361320000000     0.485210000000     0.058490000000     0.0648492  
H127     H      0.313060000000     0.577890000000     0.908030000000     0.0360548  
H128     H      0.383160000000     0.457610000000     0.145620000000     0.158699   
In1      In     0.337530000000     0.328190000000     0.993430000000     2.45127    
In2      In     0.324830000000     0.675490000000     0.991520000000     2.42703    
In3      In     0.684200000000     0.326500000000     0.963400000000     2.43304    
In4      In     0.674350000000     0.671310000000     0.994620000000     2.45051    
In5      In     0.833420000000     0.171300000000     0.465900000000     2.43901    
In6      In     0.826370000000     0.824950000000     0.494120000000     2.44329    
In7      In     0.175580000000     0.832310000000     0.488750000000     2.42032    
In8      In     0.180860000000     0.179120000000     0.493460000000     2.40964    
N1       N      0.188720000000     0.086380000000     0.503760000000    -0.18355    
N2       N      0.185100000000     0.924890000000     0.489410000000    -0.194881   
N3       N      0.919860000000     0.823820000000     0.502400000000    -0.18342    
N4       N      0.082780000000     0.823710000000     0.495820000000    -0.192154   
N5       N      0.822420000000     0.917410000000     0.476360000000    -0.182694   
N6       N      0.822570000000     0.079180000000     0.471100000000    -0.19306    
N7       N      0.926240000000     0.181280000000     0.451350000000    -0.183333   
N8       N      0.088440000000     0.186800000000     0.474170000000    -0.193588   
N9       N      0.712650000000     0.712350000000     0.858020000000    -0.185092   
N10      N      0.786220000000     0.784990000000     0.629290000000    -0.194132   
N11      N      0.709500000000     0.709920000000     0.136170000000    -0.185528   
N12      N      0.783500000000     0.783330000000     0.363590000000    -0.193092   
N13      N      0.726300000000     0.282240000000     0.835020000000    -0.1849     
N14      N      0.792570000000     0.207210000000     0.603190000000    -0.193852   
N15      N      0.797230000000     0.218310000000     0.333440000000    -0.184222   
N16      N      0.725230000000     0.290490000000     0.101730000000    -0.1922     
N17      N      0.694770000000     0.419040000000     0.968710000000    -0.184626   
N18      N      0.689590000000     0.579930000000     0.993810000000    -0.190753   
N19      N      0.286720000000     0.721890000000     0.859770000000    -0.184447   
N20      N      0.216580000000     0.791490000000     0.622740000000    -0.19192    
N21      N      0.212320000000     0.787040000000     0.355720000000    -0.1857     
N22      N      0.281790000000     0.717510000000     0.120600000000    -0.192709   
N23      N      0.580710000000     0.674090000000     0.986940000000    -0.183848   
N24      N      0.418050000000     0.680000000000     0.988320000000    -0.192176   
N25      N      0.289010000000     0.290840000000     0.864260000000    -0.182525   
N26      N      0.217900000000     0.218710000000     0.632260000000    -0.193219   
N27      N      0.303110000000     0.287880000000     0.134340000000    -0.185631   
N28      N      0.224120000000     0.217950000000     0.360170000000    -0.1934     
N29      N      0.428910000000     0.314440000000     0.966690000000    -0.184328   
N30      N      0.591480000000     0.316510000000     0.954850000000    -0.192143   
N31      N      0.330840000000     0.421220000000     0.001060000000    -0.182039   
N32      N      0.319060000000     0.582760000000     0.996450000000    -0.193557   
O1       O      0.320950000000     0.329370000000     0.083650000000    -0.482787   
O2       O      0.320940000000     0.286740000000     0.043500000000    -0.5018     
O3       O      0.333360000000     0.299140000000     0.915480000000    -0.492895   
O4       O      0.315710000000     0.373850000000     0.968000000000    -0.480769   
O5       O      0.384350000000     0.308460000000     0.017970000000    -0.495817   
O6       O      0.352140000000     0.374520000000     0.026120000000    -0.478239   
O7       O      0.293350000000     0.321380000000     0.943300000000    -0.474373   
O8       O      0.380980000000     0.333300000000     0.942310000000    -0.481697   
O9       O      0.288110000000     0.682210000000     0.924080000000    -0.497086   
O10      O      0.323480000000     0.714870000000     0.929330000000    -0.4833     
O11      O      0.284490000000     0.681080000000     0.051370000000    -0.499437   
O12      O      0.323790000000     0.629920000000     0.038110000000    -0.502411   
O13      O      0.370650000000     0.674800000000     0.945980000000    -0.492232   
O14      O      0.317950000000     0.629090000000     0.950110000000    -0.495484   
O15      O      0.321900000000     0.711790000000     0.059020000000    -0.489808   
O16      O      0.371500000000     0.681290000000     0.033800000000    -0.490592   
O17      O      0.725640000000     0.308200000000     0.010960000000    -0.492428   
O18      O      0.683260000000     0.309920000000     0.054120000000    -0.490157   
O19      O      0.686360000000     0.288870000000     0.897320000000    -0.503546   
O20      O      0.636710000000     0.341300000000     0.934110000000    -0.49617    
O21      O      0.691360000000     0.371280000000     0.010070000000    -0.50359    
O22      O      0.639940000000     0.300100000000     0.980800000000    -0.489273   
O23      O      0.722460000000     0.320840000000     0.900330000000    -0.475155   
O24      O      0.688530000000     0.373080000000     0.922190000000    -0.473939   
O25      O      0.684980000000     0.712400000000     0.050140000000    -0.499945   
O26      O      0.698320000000     0.668840000000     0.079030000000    -0.489771   
O27      O      0.715540000000     0.687070000000     0.943110000000    -0.498423   
O28      O      0.698220000000     0.628840000000     0.961270000000    -0.491733   
O29      O      0.627700000000     0.689620000000     0.022730000000    -0.49481    
O30      O      0.667600000000     0.623460000000     0.029400000000    -0.482573   
O31      O      0.671280000000     0.697160000000     0.912160000000    -0.487169   
O32      O      0.628480000000     0.657490000000     0.957490000000    -0.478992   
O33      O      0.796960000000     0.179220000000     0.398800000000    -0.491544   
O34      O      0.833950000000     0.210170000000     0.402620000000    -0.48613    
O35      O      0.791960000000     0.190520000000     0.511930000000    -0.505508   
O36      O      0.831370000000     0.125800000000     0.512550000000    -0.506643   
O37      O      0.880010000000     0.156980000000     0.432600000000    -0.485935   
O38      O      0.822960000000     0.125550000000     0.425170000000    -0.487565   
O39      O      0.833910000000     0.186650000000     0.556770000000    -0.494057   
O40      O      0.878460000000     0.196190000000     0.483230000000    -0.484523   
O41      O      0.821080000000     0.786070000000     0.431720000000    -0.496476   
O42      O      0.788970000000     0.822360000000     0.427170000000    -0.499339   
O43      O      0.825280000000     0.789760000000     0.565010000000    -0.50435    
O44      O      0.871720000000     0.836070000000     0.536620000000    -0.485537   
O45      O      0.832160000000     0.868560000000     0.443660000000    -0.483761   
O46      O      0.873390000000     0.810130000000     0.462540000000    -0.487353   
O47      O      0.787810000000     0.820350000000     0.557700000000    -0.500546   
O48      O      0.814430000000     0.872450000000     0.525280000000    -0.488657   
O49      O      0.217910000000     0.818890000000     0.540060000000    -0.492578   
O50      O      0.174240000000     0.805240000000     0.570150000000    -0.48623    
O51      O      0.183780000000     0.789500000000     0.437370000000    -0.485162   
O52      O      0.129030000000     0.821800000000     0.449220000000    -0.49019    
O53      O      0.197620000000     0.876500000000     0.520670000000    -0.498693   
O54      O      0.130190000000     0.833300000000     0.535360000000    -0.490188   
O55      O      0.203280000000     0.830450000000     0.407950000000    -0.505877   
O56      O      0.164490000000     0.880070000000     0.455960000000    -0.505182   
O57      O      0.194530000000     0.220110000000     0.439690000000    -0.500219   
O58      O      0.209500000000     0.176520000000     0.413690000000    -0.487677   
O59      O      0.185390000000     0.218210000000     0.555890000000    -0.493099   
O60      O      0.132700000000     0.185780000000     0.527500000000    -0.494587   
O61      O      0.208810000000     0.135040000000     0.490720000000    -0.46279    
O62      O      0.137550000000     0.181570000000     0.439510000000    -0.500827   
O63      O      0.212610000000     0.178960000000     0.570070000000    -0.492298   
O64      O      0.161600000000     0.131590000000     0.509210000000    -0.499349   
O65      O      0.252910000000     0.112250000000     0.562050000000    -0.145607   
O66      O      0.280410000000     0.062350000000     0.520440000000    -0.267944   
O67      O      0.260820000000     0.107160000000     0.450280000000    -0.15578    
O68      O      0.901320000000     0.858570000000     0.629580000000    -0.144691   
O69      O      0.946960000000     0.897070000000     0.600480000000    -0.267342   
O70      O      0.895890000000     0.893620000000     0.536480000000    -0.158685   
O71      O      0.833020000000     0.894290000000     0.339280000000    -0.144392   
O72      O      0.872250000000     0.941830000000     0.334950000000    -0.266062   
O73      O      0.884420000000     0.894190000000     0.403580000000    -0.156348   
O74      O      0.903470000000     0.155910000000     0.327000000000    -0.136645   
O75      O      0.957390000000     0.126060000000     0.323170000000    -0.264757   
O76      O      0.913680000000     0.107940000000     0.396490000000    -0.15964    
O77      O      0.635300000000     0.733470000000     0.844910000000    -0.143      
O78      O      0.645050000000     0.721590000000     0.735850000000    -0.265251   
O79      O      0.649920000000     0.676230000000     0.812080000000    -0.146448   
O80      O      0.734540000000     0.633560000000     0.149080000000    -0.14474    
O81      O      0.719050000000     0.642350000000     0.257010000000    -0.265911   
O82      O      0.675550000000     0.645730000000     0.176530000000    -0.158815   
O83      O      0.781070000000     0.302540000000     0.925010000000    -0.143802   
O84      O      0.818180000000     0.307500000000     0.835940000000    -0.266782   
O85      O      0.771980000000     0.348110000000     0.849840000000    -0.142715   
O86      O      0.873960000000     0.224800000000     0.319520000000    -0.137561   
O87      O      0.862330000000     0.280420000000     0.276140000000    -0.264052   
O88      O      0.851260000000     0.269360000000     0.385600000000    -0.156545   
O89      O      0.663160000000     0.406800000000     0.836900000000    -0.139648   
O90      O      0.700990000000     0.452560000000     0.806020000000    -0.262978   
O91      O      0.724840000000     0.399530000000     0.844060000000    -0.142102   
O92      O      0.360890000000     0.750480000000     0.865000000000    -0.142507   
O93      O      0.333660000000     0.803920000000     0.838480000000    -0.266463   
O94      O      0.321170000000     0.776630000000     0.937220000000    -0.16202    
O95      O      0.156980000000     0.736410000000     0.402680000000    -0.144125   
O96      O      0.199520000000     0.693690000000     0.379450000000    -0.266536   
O97      O      0.210600000000     0.734920000000     0.460590000000    -0.163506   
O98      O      0.601000000000     0.601740000000     0.959260000000    -0.146664   
O99      O      0.551220000000     0.600150000000     0.892270000000    -0.264569   
O100     O      0.599650000000     0.635650000000     0.864270000000    -0.140934   
O101     O      0.243280000000     0.351440000000     0.901160000000    -0.138627   
O102     O      0.196460000000     0.312800000000     0.880600000000    -0.265668   
O103     O      0.235700000000     0.301090000000     0.965880000000    -0.161646   
O104     O      0.303310000000     0.365840000000     0.172210000000    -0.134841   
O105     O      0.323300000000     0.342320000000     0.270530000000    -0.263421   
O106     O      0.357190000000     0.335050000000     0.177460000000    -0.149553   
O107     O      0.408740000000     0.363660000000     0.854090000000    -0.140236   
O108     O      0.446660000000     0.325850000000     0.798160000000    -0.264085   
O109     O      0.394980000000     0.303620000000     0.844790000000    -0.156745   
O110     O      0.405010000000     0.406330000000     0.042270000000    -0.140521   
O111     O      0.396730000000     0.452870000000     0.113780000000    -0.263876   
O112     O      0.363750000000     0.401120000000     0.126190000000    -0.135356   
S1       S      0.252790000000     0.088410000000     0.508640000000     0.281745   
S2       S      0.919870000000     0.873350000000     0.575700000000     0.28299    
S3       S      0.856440000000     0.915560000000     0.377340000000     0.284067   
S4       S      0.929420000000     0.138050000000     0.365920000000     0.283726   
S5       S      0.656240000000     0.713040000000     0.801400000000     0.283234   
S6       S      0.711970000000     0.653380000000     0.190820000000     0.283046   
S7       S      0.781870000000     0.311890000000     0.857940000000     0.28236    
S8       S      0.850150000000     0.254160000000     0.322420000000     0.283093   
S9       S      0.696090000000     0.423800000000     0.851840000000     0.282732   
S10      S      0.328600000000     0.770100000000     0.870560000000     0.282626   
S11      S      0.194360000000     0.730170000000     0.398520000000     0.282703   
S12      S      0.579140000000     0.622790000000     0.917450000000     0.283505   
S13      S      0.233280000000     0.315010000000     0.901540000000     0.283064   
S14      S      0.321590000000     0.336650000000     0.201180000000     0.284715   
S15      S      0.423030000000     0.328690000000     0.853180000000     0.282425   
S16      S      0.378890000000     0.424560000000     0.079390000000     0.283917   


