data_structure

_audit_creation_method RASPA-1.0
_audit_creation_date 2023-5-23
_audit_author_name 'Poobodin Mano'

_cell_length_a    66.4273
_cell_length_b    66.4704
_cell_length_c    40.0428
_cell_angle_alpha 90.0253
_cell_angle_beta  89.9753
_cell_angle_gamma 120.373
_cell_volume      152541

_symmetry_cell_setting          triclinic
_symmetry_space_group_name_Hall 'P 1'
_symmetry_space_group_name_H-M  'P 1'
_symmetry_Int_Tables_number     1

_symmetry_equiv_pos_as_xyz 'x,y,z'

loop_
_atom_site_label
_atom_site_type_symbol
_atom_site_fract_x
_atom_site_fract_y
_atom_site_fract_z
_atom_site_charge
C1       C      0.385520000000     0.525140000000     0.124170000000     0.408715   
C2       C      0.440770000000     0.523520000000     0.047770000000     0.41015    
C3       C      0.382300000000     0.527480000000     0.018770000000     0.413035   
C4       C      0.445740000000     0.582730000000     0.090400000000     0.410097   
C5       C      0.604570000000     0.468530000000     0.903160000000     0.413138   
C6       C      0.546240000000     0.468430000000     0.975160000000     0.412522   
C7       C      0.543740000000     0.408930000000     0.937620000000     0.408543   
C8       C      0.605810000000     0.465810000000     0.006690000000     0.409177   
C9       C      0.939500000000     0.804980000000     0.070570000000     0.410923   
C10      C      0.881040000000     0.743790000000     0.142630000000     0.410395   
C11      C      0.939190000000     0.804590000000     0.174200000000     0.410713   
C12      C      0.877790000000     0.798940000000     0.099400000000     0.410804   
C13      C      0.719900000000     0.525510000000     0.294950000000     0.411912   
C14      C      0.778240000000     0.583130000000     0.221120000000     0.411326   
C15      C      0.780350000000     0.526670000000     0.261620000000     0.409162   
C16      C      0.718120000000     0.521100000000     0.191710000000     0.409833   
C17      C      0.270580000000     0.801050000000     0.236880000000     0.412165   
C18      C      0.216660000000     0.802750000000     0.312480000000     0.410743   
C19      C      0.211680000000     0.740300000000     0.272450000000     0.413681   
C20      C      0.274350000000     0.794010000000     0.340040000000     0.409322   
C21      C      0.052150000000     0.856830000000     0.462090000000     0.411039   
C22      C      0.111450000000     0.857060000000     0.389360000000     0.410851   
C23      C      0.051930000000     0.859030000000     0.358810000000     0.41065    
C24      C      0.113720000000     0.914280000000     0.433270000000     0.411098   
C25      C      0.609210000000     0.137470000000     0.407940000000     0.411484   
C26      C      0.549980000000     0.077960000000     0.479900000000     0.410923   
C27      C      0.608780000000     0.139350000000     0.512170000000     0.410461   
C28      C      0.547610000000     0.133050000000     0.436760000000     0.411464   
C29      C      0.392450000000     0.860780000000     0.625820000000     0.413719   
C30      C      0.445540000000     0.916060000000     0.551550000000     0.409891   
C31      C      0.450190000000     0.856970000000     0.587870000000     0.415314   
C32      C      0.388140000000     0.849010000000     0.521980000000     0.409936   
C33      C      0.940350000000     0.133830000000     0.568830000000     0.411064   
C34      C      0.881780000000     0.133710000000     0.642630000000     0.41107    
C35      C      0.879040000000     0.076170000000     0.597840000000     0.410761   
C36      C      0.940640000000     0.131140000000     0.672830000000     0.410873   
C37      C      0.725360000000     0.192060000000     0.801970000000     0.411077   
C38      C      0.779560000000     0.190400000000     0.724460000000     0.411444   
C39      C      0.720730000000     0.194910000000     0.697620000000     0.4123     
C40      C      0.785210000000     0.251400000000     0.763730000000     0.408982   
C41      C      0.267390000000     0.469920000000     0.730610000000     0.410603   
C42      C      0.211970000000     0.409880000000     0.805990000000     0.410186   
C43      C      0.268950000000     0.471670000000     0.835230000000     0.411945   
C44      C      0.205640000000     0.463400000000     0.762480000000     0.410491   
C45      C      0.055180000000     0.191300000000     0.960500000000     0.412322   
C46      C      0.112990000000     0.249060000000     0.886510000000     0.411086   
C47      C      0.115970000000     0.192840000000     0.927010000000     0.409444   
C48      C      0.053120000000     0.186510000000     0.857720000000     0.410062   
C49      C      0.855420000000     0.799540000000     0.569950000000     0.41232    
C50      C      0.855900000000     0.741630000000     0.643120000000     0.411766   
C51      C      0.914590000000     0.797790000000     0.602110000000     0.409501   
C52      C      0.858370000000     0.803570000000     0.673060000000     0.410174   
C53      C      0.798870000000     0.521160000000     0.792680000000     0.411496   
C54      C      0.800800000000     0.581450000000     0.720050000000     0.410714   
C55      C      0.798140000000     0.520580000000     0.689160000000     0.41063    
C56      C      0.742710000000     0.526300000000     0.764470000000     0.410536   
C57      C      0.193010000000     0.133530000000     0.067270000000     0.40959    
C58      C      0.250830000000     0.135040000000     0.143370000000     0.410326   
C59      C      0.189240000000     0.131690000000     0.172270000000     0.411915   
C60      C      0.196880000000     0.076760000000     0.098400000000     0.410399   
C61      C      0.468510000000     0.190640000000     0.296700000000     0.411927   
C62      C      0.410750000000     0.190270000000     0.222410000000     0.4116     
C63      C      0.466690000000     0.249440000000     0.263600000000     0.409213   
C64      C      0.473360000000     0.193410000000     0.193670000000     0.409623   
C65      C      0.857510000000     0.467080000000     0.401740000000     0.411613   
C66      C      0.916850000000     0.467710000000     0.474580000000     0.410935   
C67      C      0.855240000000     0.465040000000     0.505100000000     0.410666   
C68      C      0.861850000000     0.410210000000     0.429890000000     0.410952   
C69      C      0.125760000000     0.520010000000     0.622670000000     0.417092   
C70      C      0.077680000000     0.525730000000     0.551350000000     0.40879    
C71      C      0.138890000000     0.589960000000     0.593280000000     0.420788   
C72      C      0.148220000000     0.542260000000     0.522820000000     0.405492   
C73      C      0.136030000000     0.192100000000     0.459770000000     0.412252   
C74      C      0.136500000000     0.250830000000     0.387830000000     0.411532   
C75      C      0.133710000000     0.188650000000     0.356520000000     0.40978    
C76      C      0.077220000000     0.194120000000     0.427290000000     0.409825   
C77      C      0.194520000000     0.470460000000     0.241180000000     0.41091    
C78      C      0.192230000000     0.412320000000     0.316470000000     0.410936   
C79      C      0.251390000000     0.467360000000     0.270650000000     0.412238   
C80      C      0.199130000000     0.477170000000     0.345010000000     0.41142    
C81      C      0.463380000000     0.852340000000     0.123200000000     0.411542   
C82      C      0.466700000000     0.914180000000     0.052830000000     0.409894   
C83      C      0.462050000000     0.852760000000     0.019890000000     0.410713   
C84      C      0.407890000000     0.859530000000     0.096710000000     0.410843   
C85      C      0.527330000000     0.134720000000     0.906580000000     0.412465   
C86      C      0.527060000000     0.075800000000     0.978220000000     0.411754   
C87      C      0.586300000000     0.131810000000     0.938080000000     0.409674   
C88      C      0.530090000000     0.137860000000     0.009170000000     0.409699   
C89      C      0.797940000000     0.856700000000     0.961340000000     0.412282   
C90      C      0.739940000000     0.856360000000     0.887960000000     0.412154   
C91      C      0.796780000000     0.915910000000     0.927400000000     0.408827   
C92      C      0.802360000000     0.859330000000     0.858120000000     0.409545   
C93      C      0.522360000000     0.794960000000     0.731780000000     0.409324   
C94      C      0.579290000000     0.798060000000     0.809770000000     0.409023   
C95      C      0.517330000000     0.794490000000     0.837130000000     0.413346   
C96      C      0.524060000000     0.738000000000     0.766680000000     0.410769   
C97      C      0.137840000000     0.605720000000     0.126510000000     0.411295   
C98      C      0.079890000000     0.547380000000     0.051470000000     0.40992    
C99      C      0.141260000000     0.608000000000     0.023120000000     0.410845   
C100     C      0.135540000000     0.545990000000     0.096350000000     0.411075   
C101     C      0.868200000000     0.389030000000     0.902080000000     0.414234   
C102     C      0.919260000000     0.441580000000     0.975370000000     0.412193   
C103     C      0.858380000000     0.445710000000     0.936990000000     0.41951    
C104     C      0.848490000000     0.386980000000     0.004220000000     0.407266   
C105     C      0.192660000000     0.053640000000     0.569900000000     0.413513   
C106     C      0.249690000000     0.109000000000     0.645140000000     0.411374   
C107     C      0.194110000000     0.114500000000     0.602150000000     0.41113    
C108     C      0.182940000000     0.051410000000     0.671970000000     0.409215   
C109     C      0.468660000000     0.271780000000     0.797160000000     0.411533   
C110     C      0.410150000000     0.212670000000     0.724010000000     0.410626   
C111     C      0.471200000000     0.272630000000     0.693190000000     0.411186   
C112     C      0.466460000000     0.211810000000     0.767750000000     0.411105   
C113     C      0.199050000000     0.724410000000     0.741010000000     0.411268   
C114     C      0.198270000000     0.783920000000     0.812400000000     0.409984   
C115     C      0.199890000000     0.724980000000     0.843930000000     0.410883   
C116     C      0.255840000000     0.786160000000     0.768100000000     0.411223   
C117     C      0.142980000000     0.940080000000     0.957000000000     0.414407   
C118     C      0.140440000000     0.886910000000     0.885560000000     0.411354   
C119     C      0.074960000000     0.882060000000     0.925290000000     0.421032   
C120     C      0.122590000000     0.939610000000     0.855630000000     0.40579    
C121     C      0.524650000000     0.385960000000     0.405390000000     0.410871   
C122     C      0.524250000000     0.445040000000     0.477360000000     0.411078   
C123     C      0.526410000000     0.385830000000     0.509120000000     0.410824   
C124     C      0.581970000000     0.447420000000     0.434610000000     0.411371   
C125     C      0.469540000000     0.602610000000     0.622980000000     0.411487   
C126     C      0.468290000000     0.549820000000     0.549270000000     0.415778   
C127     C      0.403590000000     0.546100000000     0.587440000000     0.418091   
C128     C      0.453410000000     0.605150000000     0.520660000000     0.406177   
C129     C      0.857880000000     0.053230000000     0.067640000000     0.411626   
C130     C      0.858220000000     0.112200000000     0.140430000000     0.410921   
C131     C      0.859390000000     0.052350000000     0.171400000000     0.411077   
C132     C      0.915820000000     0.113740000000     0.097620000000     0.411402   
C133     C      0.802120000000     0.272340000000     0.290630000000     0.412202   
C134     C      0.803390000000     0.217300000000     0.215790000000     0.411165   
C135     C      0.741950000000     0.212360000000     0.257870000000     0.411911   
C136     C      0.794890000000     0.274800000000     0.187690000000     0.409718   
C137     C      0.799670000000     0.938490000000     0.457460000000     0.410494   
C138     C      0.740700000000     0.877960000000     0.385450000000     0.411716   
C139     C      0.801940000000     0.938240000000     0.354330000000     0.410467   
C140     C      0.796210000000     0.877320000000     0.429730000000     0.410647   
C141     C      0.529360000000     0.718220000000     0.233320000000     0.410803   
C142     C      0.580480000000     0.770940000000     0.308760000000     0.415901   
C143     C      0.520220000000     0.774400000000     0.267990000000     0.417682   
C144     C      0.509540000000     0.714990000000     0.335160000000     0.406304   
C145     C      0.692180000000     0.831560000000     0.338450000000    -0.0863562  
C146     C      0.672910000000     0.831160000000     0.353450000000     0.0358177  
C147     C      0.677000000000     0.846880000000     0.379550000000    -0.0860245  
C148     C      0.699790000000     0.862320000000     0.390080000000     0.0740706  
C149     C      0.714740000000     0.847410000000     0.349380000000     0.073699   
C150     C      0.648710000000     0.814650000000     0.341800000000     0.035664   
C151     C      0.643950000000     0.808880000000     0.307880000000    -0.0861248  
C152     C      0.621070000000     0.793820000000     0.297330000000     0.073712   
C153     C      0.607360000000     0.789900000000     0.352970000000     0.0730713  
C154     C      0.630040000000     0.804680000000     0.364440000000    -0.0862957  
C155     C      0.820730000000     0.005330000000     0.227740000000    -0.0868084  
C156     C      0.836680000000     0.003570000000     0.248580000000     0.0355906  
C157     C      0.860580000000     0.018370000000     0.242700000000    -0.0858642  
C158     C      0.867990000000     0.034730000000     0.216790000000     0.0726794  
C159     C      0.828700000000     0.021690000000     0.202030000000     0.073396   
C160     C      0.828160000000     0.986700000000     0.276710000000     0.0355992  
C161     C      0.809840000000     0.984300000000     0.296820000000    -0.0869849  
C162     C      0.801410000000     0.968050000000     0.322660000000     0.0736286  
C163     C      0.828780000000     0.956320000000     0.309440000000     0.0724637  
C164     C      0.837800000000     0.972620000000     0.283420000000    -0.0857796  
C165     C      0.823840000000     0.141040000000     0.146990000000    -0.0858946  
C166     C      0.835920000000     0.157650000000     0.172000000000     0.0357534  
C167     C      0.855710000000     0.158590000000     0.186070000000    -0.0860935  
C168     C      0.862830000000     0.143150000000     0.175360000000     0.0735348  
C169     C      0.831640000000     0.126090000000     0.136560000000     0.0738762  
C170     C      0.827840000000     0.173770000000     0.183410000000     0.0356172  
C171     C      0.817620000000     0.182200000000     0.160960000000    -0.0860901  
C172     C      0.809600000000     0.196790000000     0.172220000000     0.0730799  
C173     C      0.822160000000     0.195670000000     0.227230000000     0.0737508  
C174     C      0.830090000000     0.180790000000     0.216920000000    -0.0858421  
C175     C      0.451500000000     0.628270000000     0.438520000000    -0.0861848  
C176     C      0.468540000000     0.651870000000     0.442210000000     0.035562   
C177     C      0.479030000000     0.659640000000     0.473530000000    -0.0862929  
C178     C      0.473200000000     0.643830000000     0.499750000000     0.0730545  
C179     C      0.446010000000     0.612920000000     0.465400000000     0.0733378  
C180     C      0.476810000000     0.667950000000     0.413100000000     0.0355311  
C181     C      0.480730000000     0.660500000000     0.382340000000    -0.0861821  
C182     C      0.491080000000     0.676380000000     0.356250000000     0.0729047  
C183     C      0.492800000000     0.706710000000     0.389570000000     0.0733607  
C184     C      0.482550000000     0.691280000000     0.416320000000    -0.0861681  
C185     C      0.490450000000     0.474570000000     0.481770000000    -0.0859569  
C186     C      0.501830000000     0.490620000000     0.507660000000     0.0357436  
C187     C      0.520900000000     0.490910000000     0.523160000000    -0.0862591  
C188     C      0.528080000000     0.475440000000     0.512830000000     0.0736484  
C189     C      0.498230000000     0.459500000000     0.471880000000     0.0738759  
C190     C      0.493740000000     0.506820000000     0.518530000000     0.0356385  
C191     C      0.485060000000     0.516320000000     0.495280000000    -0.0861894  
C192     C      0.476840000000     0.530860000000     0.505980000000     0.0729619  
C193     C      0.486170000000     0.527540000000     0.562080000000     0.0736075  
C194     C      0.494340000000     0.512750000000     0.552290000000    -0.0861595  
C195     C      0.163020000000     0.811810000000     0.819070000000    -0.0860528  
C196     C      0.175240000000     0.828870000000     0.843480000000     0.0358183  
C197     C      0.195350000000     0.830370000000     0.857280000000    -0.0862213  
C198     C      0.202740000000     0.815100000000     0.846710000000     0.0734615  
C199     C      0.171030000000     0.796990000000     0.808880000000     0.0739459  
C200     C      0.166960000000     0.844900000000     0.854450000000     0.0354518  
C201     C      0.156690000000     0.853010000000     0.831610000000    -0.0860971  
C202     C      0.148180000000     0.867270000000     0.842430000000     0.0729045  
C203     C      0.160410000000     0.866520000000     0.897790000000     0.0730678  
C204     C      0.168930000000     0.852030000000     0.887880000000    -0.0856969  
C205     C      0.505970000000     0.306530000000     0.621220000000    -0.0860241  
C206     C      0.496550000000     0.320900000000     0.615280000000     0.0356635  
C207     C      0.478790000000     0.318900000000     0.636300000000    -0.0869861  
C208     C      0.470670000000     0.302740000000     0.662270000000     0.0735554  
C209     C      0.497250000000     0.290330000000     0.647380000000     0.072659   
C210     C      0.504680000000     0.337620000000     0.586990000000     0.0355448  
C211     C      0.528500000000     0.352210000000     0.580270000000    -0.0858267  
C212     C      0.535580000000     0.368400000000     0.554160000000     0.072556   
C213     C      0.496110000000     0.355580000000     0.540840000000     0.0735258  
C214     C      0.488460000000     0.339420000000     0.566800000000    -0.0869569  
C215     C      0.149200000000     0.023280000000     0.747490000000    -0.0861749  
C216     C      0.149950000000     0.002570000000     0.747920000000     0.0356531  
C217     C      0.161460000000     0.998430000000     0.721880000000    -0.0865683  
C218     C      0.172240000000     0.014920000000     0.696610000000     0.0735216  
C219     C      0.160040000000     0.039350000000     0.721590000000     0.0733904  
C220     C      0.140030000000     0.985900000000     0.776200000000     0.0356549  
C221     C      0.143940000000     0.993980000000     0.809200000000    -0.0862784  
C222     C      0.137120000000     0.978130000000     0.835580000000     0.0734234  
C223     C      0.121350000000     0.946400000000     0.797600000000     0.0732654  
C224     C      0.128070000000     0.961770000000     0.770590000000    -0.0863848  
C225     C      0.313370000000     0.145050000000     0.645490000000    -0.0859884  
C226     C      0.317860000000     0.151770000000     0.679150000000     0.03567    
C227     C      0.298860000000     0.143350000000     0.701160000000    -0.0862301  
C228     C      0.276190000000     0.129030000000     0.689340000000     0.0732117  
C229     C      0.290480000000     0.130440000000     0.634630000000     0.0738273  
C230     C      0.342140000000     0.167630000000     0.691150000000     0.0358949  
C231     C      0.361040000000     0.166570000000     0.677520000000    -0.0862863  
C232     C      0.383690000000     0.181830000000     0.688730000000     0.0737411  
C233     C      0.369530000000     0.198900000000     0.727160000000     0.0740755  
C234     C      0.346690000000     0.184130000000     0.716250000000    -0.0861114  
C235     C      0.790620000000     0.301920000000     0.110410000000    -0.0862211  
C236     C      0.811650000000     0.323310000000     0.111180000000     0.0356256  
C237     C      0.826510000000     0.328250000000     0.138580000000    -0.0865396  
C238     C      0.820510000000     0.311840000000     0.164000000000     0.073298   
C239     C      0.785030000000     0.285960000000     0.136520000000     0.0732982  
C240     C      0.818840000000     0.339950000000     0.082850000000     0.0356346  
C241     C      0.816610000000     0.332020000000     0.049920000000    -0.0864443  
C242     C      0.825970000000     0.348050000000     0.023750000000     0.0733442  
C243     C      0.838440000000     0.379550000000     0.061690000000     0.073469   
C244     C      0.829460000000     0.364010000000     0.088510000000    -0.0864471  
C245     C      0.160990000000     0.678350000000     0.900610000000    -0.0869466  
C246     C      0.176820000000     0.675610000000     0.920340000000     0.0357838  
C247     C      0.200730000000     0.689800000000     0.913860000000    -0.0860164  
C248     C      0.208280000000     0.706480000000     0.888350000000     0.0730121  
C249     C      0.169090000000     0.694980000000     0.875250000000     0.0737897  
C250     C      0.168180000000     0.658220000000     0.947810000000     0.0355976  
C251     C      0.150400000000     0.656090000000     0.968910000000    -0.0868579  
C252     C      0.141730000000     0.639240000000     0.993970000000     0.0735386  
C253     C      0.167810000000     0.626430000000     0.978050000000     0.0728555  
C254     C      0.177060000000     0.643290000000     0.952770000000    -0.085878   
C255     C      0.982810000000     0.479170000000     0.973360000000    -0.0856179  
C256     C      0.987870000000     0.484780000000     0.007270000000     0.0345598  
C257     C      0.969420000000     0.474710000000     0.030230000000    -0.0859578  
C258     C      0.946640000000     0.460060000000     0.019120000000     0.0727826  
C259     C      0.959800000000     0.464240000000     0.963140000000     0.0730457  
C260     C      0.012120000000     0.501300000000     0.018670000000     0.0367729  
C261     C      0.031350000000     0.501670000000     0.003550000000    -0.0865595  
C262     C      0.053930000000     0.517330000000     0.014680000000     0.0737909  
C263     C      0.039050000000     0.532220000000     0.055530000000     0.0740615  
C264     C      0.016280000000     0.516960000000     0.044860000000    -0.0862467  
C265     C      0.527740000000     0.692270000000     0.721360000000    -0.0860152  
C266     C      0.504100000000     0.675060000000     0.718450000000     0.0357172  
C267     C      0.487640000000     0.678620000000     0.735460000000    -0.0855818  
C268     C      0.494800000000     0.699260000000     0.753180000000     0.0740907  
C269     C      0.534180000000     0.712970000000     0.738430000000     0.0739343  
C270     C      0.496510000000     0.654580000000     0.695740000000     0.0358094  
C271     C      0.509320000000     0.656440000000     0.666800000000    -0.0859062  
C272     C      0.500680000000     0.638230000000     0.643710000000     0.0750683  
C273     C      0.467130000000     0.615910000000     0.677100000000     0.0735687  
C274     C      0.475560000000     0.633540000000     0.701210000000    -0.0857829  
C275     C      0.798990000000     0.962180000000     0.979220000000    -0.0864745  
C276     C      0.821750000000     0.980390000000     0.973190000000     0.0358078  
C277     C      0.835040000000     0.977310000000     0.948700000000    -0.0865174  
C278     C      0.825920000000     0.955920000000     0.932180000000     0.073921   
C279     C      0.790540000000     0.940980000000     0.962530000000     0.0738068  
C280     C      0.832240000000     0.001410000000     0.994780000000     0.0359134  
C281     C      0.819670000000     0.012310000000     0.003800000000    -0.0864079  
C282     C      0.828890000000     0.030310000000     0.027390000000     0.0734423  
C283     C      0.862810000000     0.027250000000     0.032680000000     0.0739424  
C284     C      0.854280000000     0.009470000000     0.008940000000    -0.0868063  
C285     C      0.642580000000     0.834910000000     0.818500000000    -0.0857979  
C286     C      0.647340000000     0.823330000000     0.843850000000     0.0357608  
C287     C      0.628550000000     0.803160000000     0.857680000000    -0.0860699  
C288     C      0.605870000000     0.795130000000     0.846260000000     0.0741802  
C289     C      0.619730000000     0.826170000000     0.807320000000     0.0739566  
C290     C      0.671710000000     0.832100000000     0.855560000000     0.0359187  
C291     C      0.690580000000     0.842950000000     0.833350000000    -0.0862114  
C292     C      0.713290000000     0.851130000000     0.844700000000     0.0737768  
C293     C      0.699310000000     0.837700000000     0.899390000000     0.0742846  
C294     C      0.676400000000     0.829650000000     0.889020000000    -0.0860248  
C295     C      0.469000000000     0.169800000000     0.823760000000    -0.0867616  
C296     C      0.490630000000     0.172380000000     0.815260000000     0.0359804  
C297     C      0.503060000000     0.187000000000     0.788490000000    -0.0865497  
C298     C      0.494220000000     0.199360000000     0.771800000000     0.0741186  
C299     C      0.460830000000     0.182590000000     0.806800000000     0.0743169  
C300     C      0.500920000000     0.161410000000     0.836120000000     0.0358075  
C301     C      0.524070000000     0.174570000000     0.846990000000    -0.0866047  
C302     C      0.532800000000     0.165100000000     0.869910000000     0.073586   
C303     C      0.496720000000     0.129400000000     0.870210000000     0.0736668  
C304     C      0.487320000000     0.138430000000     0.847530000000    -0.0864857  
C305     C      0.466220000000     0.809210000000     0.176280000000    -0.0866134  
C306     C      0.485630000000     0.823290000000     0.196320000000     0.0356893  
C307     C      0.496820000000     0.847560000000     0.192320000000    -0.0860667  
C308     C      0.488870000000     0.857120000000     0.168170000000     0.0733309  
C309     C      0.458810000000     0.819320000000     0.152430000000     0.0740169  
C310     C      0.494920000000     0.812420000000     0.219390000000     0.03619    
C311     C      0.479790000000     0.792180000000     0.237290000000    -0.0869709  
C312     C      0.488660000000     0.780210000000     0.254840000000     0.0749674  
C313     C      0.527230000000     0.808580000000     0.239290000000     0.0746921  
C314     C      0.518970000000     0.820980000000     0.221460000000    -0.0865191  
C315     C      0.459510000000     0.815910000000     0.949920000000    -0.0862049  
C316     C      0.483190000000     0.826240000000     0.941660000000     0.0357578  
C317     C      0.499470000000     0.845480000000     0.960200000000    -0.0871067  
C318     C      0.492010000000     0.854030000000     0.986250000000     0.0737762  
C319     C      0.452600000000     0.825150000000     0.976000000000     0.0730489  
C320     C      0.491150000000     0.817450000000     0.913530000000     0.0356579  
C321     C      0.483410000000     0.793660000000     0.909970000000    -0.0860052  
C322     C      0.492330000000     0.786140000000     0.884210000000     0.0727218  
C323     C      0.515620000000     0.825040000000     0.864970000000     0.0736406  
C324     C      0.507310000000     0.833140000000     0.890520000000    -0.0871513  
C325     C      0.514540000000     0.026110000000     0.031550000000    -0.0862132  
C326     C      0.501900000000     0.007290000000     0.009780000000     0.0358729  
C327     C      0.498080000000     0.012120000000     0.977040000000    -0.0860296  
C328     C      0.506540000000     0.035130000000     0.966940000000     0.0741832  
C329     C      0.523000000000     0.048920000000     0.020470000000     0.0737389  
C330     C      0.492670000000     0.982800000000     0.021160000000     0.0357746  
C331     C      0.505120000000     0.977250000000     0.044050000000    -0.0859526  
C332     C      0.496090000000     0.954220000000     0.054590000000     0.074018   
C333     C      0.462890000000     0.941830000000     0.020060000000     0.0737307  
C334     C      0.471240000000     0.964680000000     0.009310000000    -0.0862147  
C335     C      0.137180000000     0.503550000000     0.152460000000    -0.086713   
C336     C      0.159230000000     0.506700000000     0.145400000000     0.0359521  
C337     C      0.172230000000     0.521690000000     0.119260000000    -0.0865641  
C338     C      0.163540000000     0.533930000000     0.101890000000     0.0739775  
C339     C      0.129170000000     0.516250000000     0.134880000000     0.0742316  
C340     C      0.169350000000     0.496090000000     0.167320000000     0.0359135  
C341     C      0.192020000000     0.509740000000     0.179760000000    -0.086679   
C342     C      0.200380000000     0.500620000000     0.203820000000     0.0739741  
C343     C      0.164930000000     0.464320000000     0.202190000000     0.0738472  
C344     C      0.155900000000     0.472980000000     0.178330000000    -0.0865161  
C345     C      0.157650000000     0.139050000000     0.579520000000    -0.0865449  
C346     C      0.171190000000     0.154870000000     0.554460000000     0.0359973  
C347     C      0.193590000000     0.158610000000     0.548430000000    -0.0864906  
C348     C      0.201400000000     0.145640000000     0.565770000000     0.0738251  
C349     C      0.166050000000     0.126420000000     0.596470000000     0.0741245  
C350     C      0.161270000000     0.165730000000     0.532550000000     0.0357425  
C351     C      0.138500000000     0.152330000000     0.520280000000    -0.0864922  
C352     C      0.130160000000     0.161700000000     0.496610000000     0.0736072  
C353     C      0.165910000000     0.197720000000     0.497930000000     0.0734462  
C354     C      0.174880000000     0.188840000000     0.521550000000    -0.0862513  
C355     C      0.148110000000     0.300780000000     0.335720000000    -0.0860718  
C356     C      0.159670000000     0.319370000000     0.358230000000     0.03586    
C357     C      0.163280000000     0.314290000000     0.390940000000    -0.0859958  
C358     C      0.155620000000     0.291290000000     0.400310000000     0.0742589  
C359     C      0.140370000000     0.277950000000     0.346100000000     0.0736771  
C360     C      0.168020000000     0.343870000000     0.347620000000     0.0356138  
C361     C      0.188680000000     0.362470000000     0.360670000000    -0.086032   
C362     C      0.196310000000     0.385280000000     0.350350000000     0.0735078  
C363     C      0.163870000000     0.371950000000     0.314020000000     0.0735012  
C364     C      0.155520000000     0.348960000000     0.324160000000    -0.0857648  
C365     C      0.164430000000     0.686380000000     0.672070000000    -0.08614    
C366     C      0.175370000000     0.673270000000     0.667050000000     0.03575    
C367     C      0.195030000000     0.678540000000     0.686320000000    -0.086615   
C368     C      0.202910000000     0.696000000000     0.710470000000     0.07405    
C369     C      0.172870000000     0.703840000000     0.696470000000     0.0734954  
C370     C      0.165570000000     0.653130000000     0.643680000000     0.0359587  
C371     C      0.141460000000     0.637560000000     0.642280000000    -0.0864986  
C372     C      0.132730000000     0.616950000000     0.623920000000     0.074385   
C373     C      0.170930000000     0.627360000000     0.606620000000     0.0738556  
C374     C      0.180270000000     0.648150000000     0.624700000000    -0.0867874  
C375     C      0.205100000000     0.513680000000     0.417280000000    -0.085941   
C376     C      0.182670000000     0.510710000000     0.419060000000     0.035548   
C377     C      0.166000000000     0.496180000000     0.395590000000    -0.0867149  
C378     C      0.171840000000     0.485030000000     0.371190000000     0.0733279  
C379     C      0.210410000000     0.502340000000     0.392310000000     0.0725279  
C380     C      0.176170000000     0.521850000000     0.445850000000     0.0354997  
C381     C      0.182850000000     0.521820000000     0.479020000000    -0.0861975  
C382     C      0.174140000000     0.529740000000     0.504430000000     0.0733658  
C383     C      0.153600000000     0.539080000000     0.464830000000     0.0729995  
C384     C      0.161900000000     0.531240000000     0.438830000000    -0.0863899  
C385     C      0.859750000000     0.366610000000     0.372260000000    -0.0866171  
C386     C      0.839440000000     0.346500000000     0.382770000000     0.0358712  
C387     C      0.827930000000     0.347830000000     0.411310000000    -0.0863525  
C388     C      0.836200000000     0.369160000000     0.427700000000     0.0740346  
C389     C      0.867430000000     0.387630000000     0.389080000000     0.0743203  
C390     C      0.829280000000     0.324990000000     0.362170000000     0.0359652  
C391     C      0.805390000000     0.312860000000     0.354880000000    -0.0866137  
C392     C      0.796460000000     0.294680000000     0.331760000000     0.0740091  
C393     C      0.833950000000     0.299180000000     0.324280000000     0.0742163  
C394     C      0.843510000000     0.317590000000     0.347180000000    -0.0865298  
C395     C      0.980230000000     0.503560000000     0.483060000000    -0.0857977  
C396     C      0.984870000000     0.491110000000     0.507140000000     0.0348591  
C397     C      0.966020000000     0.470600000000     0.520060000000    -0.0858935  
C398     C      0.943350000000     0.463120000000     0.509060000000     0.0734279  
C399     C      0.957400000000     0.495390000000     0.472280000000     0.0737987  
C400     C      0.009210000000     0.499510000000     0.518670000000     0.036523   
C401     C      0.028090000000     0.510980000000     0.496600000000    -0.0863255  
C402     C      0.050840000000     0.519490000000     0.507970000000     0.0733462  
C403     C      0.036900000000     0.504880000000     0.562260000000     0.0733227  
C404     C      0.013900000000     0.496430000000     0.551860000000    -0.0860216  
C405     C      0.503900000000     0.310810000000     0.286070000000    -0.0863577  
C406     C      0.490240000000     0.313350000000     0.310540000000     0.0357975  
C407     C      0.467620000000     0.294760000000     0.316220000000    -0.0865238  
C408     C      0.459670000000     0.273770000000     0.299180000000     0.0738973  
C409     C      0.495270000000     0.289600000000     0.269190000000     0.0738301  
C410     C      0.500180000000     0.334240000000     0.332380000000     0.0358646  
C411     C      0.522300000000     0.342830000000     0.346550000000    -0.0866464  
C412     C      0.530400000000     0.360530000000     0.370380000000     0.0737552  
C413     C      0.495830000000     0.362440000000     0.365270000000     0.0733814  
C414     C      0.487050000000     0.344510000000     0.341570000000    -0.0863675  
C415     C      0.482710000000     0.155580000000     0.137470000000    -0.0871292  
C416     C      0.499890000000     0.171780000000     0.116010000000     0.0357457  
C417     C      0.508520000000     0.195580000000     0.121620000000    -0.0860349  
C418     C      0.499490000000     0.202620000000     0.147810000000     0.0729418  
C419     C      0.474300000000     0.163210000000     0.163510000000     0.0738938  
C420     C      0.508120000000     0.163600000000     0.087450000000     0.0356962  
C421     C      0.531940000000     0.173460000000     0.080420000000    -0.0858734  
C422     C      0.539110000000     0.164630000000     0.054110000000     0.0727377  
C423     C      0.499700000000     0.137160000000     0.041090000000     0.0739879  
C424     C      0.491970000000     0.145340000000     0.067310000000    -0.0871033  
C425     C      0.162070000000     0.016610000000     0.069060000000    -0.0852818  
C426     C      0.178410000000     0.014310000000     0.049590000000     0.0356383  
C427     C      0.201610000000     0.032800000000     0.049810000000    -0.086065   
C428     C      0.207580000000     0.053360000000     0.066970000000     0.0742099  
C429     C      0.168820000000     0.037210000000     0.086710000000     0.0739219  
C430     C      0.170960000000     0.993660000000     0.027300000000     0.0360509  
C431     C      0.151630000000     0.971820000000     0.035220000000    -0.0859     
C432     C      0.142990000000     0.953700000000     0.011880000000     0.0740563  
C433     C      0.173370000000     0.977330000000     0.974190000000     0.0755337  
C434     C      0.182140000000     0.995980000000     0.996550000000    -0.0860646  
C435     C      0.181040000000     0.169790000000     0.229430000000    -0.0870251  
C436     C      0.163570000000     0.153680000000     0.250620000000     0.0355545  
C437     C      0.154480000000     0.129840000000     0.244690000000    -0.0858005  
C438     C      0.163300000000     0.122640000000     0.218380000000     0.0724549  
C439     C      0.189190000000     0.162030000000     0.203230000000     0.0735164  
C440     C      0.155420000000     0.162020000000     0.279080000000     0.0356839  
C441     C      0.171650000000     0.179830000000     0.299750000000    -0.0869934  
C442     C      0.164010000000     0.188320000000     0.325680000000     0.0737171  
C443     C      0.124540000000     0.162070000000     0.311280000000     0.0728681  
C444     C      0.131600000000     0.152920000000     0.285280000000    -0.0860155  
C445     C      0.314190000000     0.170860000000     0.152560000000    -0.0858349  
C446     C      0.318600000000     0.158680000000     0.177390000000     0.0358406  
C447     C      0.299570000000     0.138440000000     0.190620000000    -0.0861339  
C448     C      0.277000000000     0.130950000000     0.179220000000     0.0742905  
C449     C      0.291430000000     0.162640000000     0.141340000000     0.0741517  
C450     C      0.342850000000     0.166960000000     0.189280000000     0.0358645  
C451     C      0.361900000000     0.178050000000     0.167400000000    -0.0861423  
C452     C      0.384500000000     0.185850000000     0.178980000000     0.0736757  
C453     C      0.370030000000     0.171490000000     0.233180000000     0.0742121  
C454     C      0.347230000000     0.163810000000     0.222590000000    -0.0859456  
C455     C      0.833340000000     0.517770000000     0.861500000000    -0.0861276  
C456     C      0.822250000000     0.493600000000     0.866420000000     0.0358533  
C457     C      0.802460000000     0.479130000000     0.847290000000    -0.0867     
C458     C      0.794640000000     0.488760000000     0.823300000000     0.074164   
C459     C      0.824960000000     0.526850000000     0.837250000000     0.0734098  
C460     C      0.832070000000     0.483160000000     0.889370000000     0.0361217  
C461     C      0.856140000000     0.491710000000     0.890300000000    -0.0864756  
C462     C      0.864800000000     0.479550000000     0.907860000000     0.0744882  
C463     C      0.826620000000     0.451510000000     0.925440000000     0.0746158  
C464     C      0.817360000000     0.463250000000     0.908180000000    -0.0868261  
C465     C      0.796600000000     0.485660000000     0.617220000000    -0.0859069  
C466     C      0.820480000000     0.494990000000     0.611170000000     0.0357173  
C467     C      0.836520000000     0.512740000000     0.632080000000    -0.0870015  
C468     C      0.828660000000     0.520970000000     0.658050000000     0.073754   
C469     C      0.789300000000     0.494470000000     0.643390000000     0.0728597  
C470     C      0.828890000000     0.486790000000     0.582830000000     0.0356973  
C471     C      0.819270000000     0.462990000000     0.576000000000    -0.0859208  
C472     C      0.828320000000     0.455880000000     0.549890000000     0.0726277  
C473     C      0.855620000000     0.495310000000     0.536810000000     0.0736717  
C474     C      0.847170000000     0.502980000000     0.562720000000    -0.0871268  
C475     C      0.852620000000     0.838780000000     0.508770000000    -0.0866486  
C476     C      0.829290000000     0.825930000000     0.498610000000     0.0357618  
C477     C      0.815360000000     0.803240000000     0.510970000000    -0.086415   
C478     C      0.824640000000     0.794240000000     0.533910000000     0.0735243  
C479     C      0.861230000000     0.829360000000     0.531970000000     0.0735592  
C480     C      0.819210000000     0.837030000000     0.477600000000     0.0360447  
C481     C      0.798020000000     0.835290000000     0.486540000000    -0.0866627  
C482     C      0.790210000000     0.848360000000     0.469480000000     0.074343   
C483     C      0.823080000000     0.863740000000     0.433540000000     0.0742245  
C484     C      0.831540000000     0.851070000000     0.450300000000    -0.0865765  
C485     C      0.820390000000     0.811480000000     0.730910000000    -0.0871092  
C486     C      0.836610000000     0.829400000000     0.751440000000     0.0357106  
C487     C      0.860430000000     0.838900000000     0.744760000000    -0.0860597  
C488     C      0.867520000000     0.830050000000     0.718400000000     0.072936   
C489     C      0.828050000000     0.803290000000     0.704630000000     0.0739273  
C490     C      0.828450000000     0.837580000000     0.780070000000     0.035731   
C491     C      0.837330000000     0.861380000000     0.785920000000    -0.0859976  
C492     C      0.828430000000     0.868470000000     0.812210000000     0.0728805  
C493     C      0.802870000000     0.829050000000     0.827560000000     0.0738132  
C494     C      0.811140000000     0.821390000000     0.801380000000    -0.0870626  
C495     C      0.844770000000     0.692740000000     0.697240000000    -0.0862369  
C496     C      0.832810000000     0.673700000000     0.675590000000     0.0358946  
C497     C      0.828820000000     0.678110000000     0.642700000000    -0.0860589  
C498     C      0.836500000000     0.700920000000     0.632320000000     0.0742893  
C499     C      0.852500000000     0.715350000000     0.685880000000     0.073791   
C500     C      0.824460000000     0.649430000000     0.687260000000     0.035742   
C501     C      0.837300000000     0.644700000000     0.710580000000    -0.0859042  
C502     C      0.829060000000     0.621880000000     0.721460000000     0.0739914  
C503     C      0.795960000000     0.608060000000     0.686330000000     0.0738643  
C504     C      0.803490000000     0.630690000000     0.675270000000    -0.0861514  
C505     C      0.012200000000     0.152140000000     0.021260000000    -0.0869261  
C506     C      0.001910000000     0.165090000000     0.031150000000     0.0368012  
C507     C      0.011240000000     0.187850000000     0.018980000000    -0.0866697  
C508     C      0.029820000000     0.196810000000     0.996360000000     0.0738478  
C509     C      0.030550000000     0.161520000000     0.998380000000     0.0739173  
C510     C      0.980320000000     0.154020000000     0.051600000000     0.0351065  
C511     C      0.961120000000     0.156010000000     0.042120000000    -0.0865732  
C512     C      0.939840000000     0.142950000000     0.058590000000     0.0742365  
C513     C      0.956430000000     0.127110000000     0.095000000000     0.0740626  
C514     C      0.977950000000     0.139750000000     0.078840000000    -0.0864221  
C515     C      0.160360000000     0.191360000000     0.978950000000    -0.086414   
C516     C      0.156200000000     0.168870000000     0.972470000000     0.0357625  
C517     C      0.139960000000     0.155560000000     0.947710000000    -0.0863615  
C518     C      0.127420000000     0.164340000000     0.931370000000     0.0736075  
C519     C      0.147370000000     0.199480000000     0.962400000000     0.0738122  
C520     C      0.166930000000     0.158620000000     0.993930000000     0.0357027  
C521     C      0.190400000000     0.171640000000     0.003610000000    -0.0862615  
C522     C      0.199210000000     0.162590000000     0.027250000000     0.0729857  
C523     C      0.162330000000     0.127940000000     0.031200000000     0.0735607  
C524     C      0.153050000000     0.136300000000     0.007400000000    -0.0865827  
C525     C      0.312800000000     0.511940000000     0.675150000000    -0.0865191  
C526     C      0.318340000000     0.497580000000     0.656430000000     0.0355894  
C527     C      0.305230000000     0.473410000000     0.661610000000    -0.0859095  
C528     C      0.287660000000     0.464260000000     0.685880000000     0.0729761  
C529     C      0.295230000000     0.502240000000     0.699140000000     0.0737964  
C530     C      0.338920000000     0.508170000000     0.633810000000     0.0362364  
C531     C      0.344430000000     0.528100000000     0.615020000000    -0.0869954  
C532     C      0.365760000000     0.540040000000     0.598260000000     0.0748401  
C533     C      0.375630000000     0.512120000000     0.616190000000     0.0745854  
C534     C      0.354500000000     0.499790000000     0.633320000000    -0.0864548  
C535     C      0.179610000000     0.497720000000     0.735650000000    -0.0854288  
C536     C      0.161560000000     0.481840000000     0.714700000000     0.0356323  
C537     C      0.157260000000     0.458900000000     0.713230000000    -0.0860866  
C538     C      0.171810000000     0.452850000000     0.730170000000     0.0739959  
C539     C      0.193410000000     0.490870000000     0.752990000000     0.0739003  
C540     C      0.148760000000     0.489680000000     0.692470000000     0.036263   
C541     C      0.145640000000     0.508340000000     0.701490000000    -0.0863291  
C542     C      0.136940000000     0.517700000000     0.678240000000     0.074531   
C543     C      0.132010000000     0.489210000000     0.638390000000     0.0757542  
C544     C      0.141150000000     0.479750000000     0.660680000000    -0.0863504  
C545     C      0.148440000000     0.298260000000     0.831100000000    -0.0861555  
C546     C      0.155780000000     0.317280000000     0.852820000000     0.0358677  
C547     C      0.148560000000     0.312730000000     0.886280000000    -0.0861077  
C548     C      0.134190000000     0.289810000000     0.897100000000     0.0743176  
C549     C      0.134350000000     0.275550000000     0.842900000000     0.0737197  
C550     C      0.170690000000     0.341660000000     0.840610000000     0.0358845  
C551     C      0.187550000000     0.347020000000     0.815730000000    -0.0859506  
C552     C      0.201110000000     0.369910000000     0.804270000000     0.0741974  
C553     C      0.182220000000     0.382590000000     0.841870000000     0.0742545  
C554     C      0.168130000000     0.359860000000     0.853570000000    -0.0862475  
C555     C      0.681540000000     0.151670000000     0.861060000000    -0.0863933  
C556     C      0.673040000000     0.165540000000     0.874060000000     0.0356649  
C557     C      0.684180000000     0.189090000000     0.864920000000    -0.0863592  
C558     C      0.702370000000     0.197900000000     0.841770000000     0.0731557  
C559     C      0.699930000000     0.161130000000     0.838090000000     0.0733502  
C560     C      0.651280000000     0.155180000000     0.894230000000     0.035746   
C561     C      0.631870000000     0.133980000000     0.884540000000    -0.086401   
C562     C      0.610450000000     0.126010000000     0.900390000000     0.0737754  
C563     C      0.627180000000     0.158680000000     0.936690000000     0.0735357  
C564     C      0.648890000000     0.167280000000     0.921200000000    -0.0862826  
C565     C      0.836170000000     0.298680000000     0.805250000000    -0.0860112  
C566     C      0.829470000000     0.315500000000     0.808620000000     0.0355872  
C567     C      0.808700000000     0.311190000000     0.793040000000    -0.0855042  
C568     C      0.794730000000     0.290140000000     0.776370000000     0.0739586  
C569     C      0.821500000000     0.277610000000     0.789090000000     0.0733678  
C570     C      0.842850000000     0.336340000000     0.830530000000     0.0360068  
C571     C      0.854150000000     0.334990000000     0.859370000000    -0.0860682  
C572     C      0.863900000000     0.353470000000     0.882050000000     0.0754797  
C573     C      0.852400000000     0.375120000000     0.848150000000     0.074134   
C574     C      0.842920000000     0.357180000000     0.824540000000    -0.0861178  
C575     C      0.981570000000     0.172150000000     0.505320000000    -0.086055   
C576     C      0.992110000000     0.159330000000     0.495800000000     0.0348056  
C577     C      0.983760000000     0.137160000000     0.509600000000    -0.0864091  
C578     C      0.966020000000     0.128700000000     0.533420000000     0.0735614  
C579     C      0.963600000000     0.163000000000     0.528970000000     0.0730688  
C580     C      0.013080000000     0.169670000000     0.474070000000     0.0368347  
C581     C      0.015760000000     0.156430000000     0.449080000000    -0.0867112  
C582     C      0.037040000000     0.165380000000     0.432270000000     0.0739334  
C583     C      0.052680000000     0.200480000000     0.463410000000     0.0741133  
C584     C      0.031600000000     0.192210000000     0.480380000000    -0.0868006  
C585     C      0.803820000000     0.981710000000     0.517980000000    -0.0864534  
C586     C      0.827010000000     0.991460000000     0.528580000000     0.0357852  
C587     C      0.840220000000     0.981990000000     0.516510000000    -0.0868565  
C588     C      0.830550000000     0.963890000000     0.493290000000     0.0739621  
C589     C      0.794560000000     0.963300000000     0.495050000000     0.0733947  
C590     C      0.838160000000     0.012590000000     0.549890000000     0.0360463  
C591     C      0.835990000000     0.031900000000     0.541890000000    -0.0867611  
C592     C      0.849260000000     0.052870000000     0.559010000000     0.074222   
C593     C      0.865540000000     0.035640000000     0.593340000000     0.0742241  
C594     C      0.852750000000     0.014460000000     0.576430000000    -0.0868143  
C595     C      0.005700000000     0.177350000000     0.801990000000    -0.0863104  
C596     C      0.004620000000     0.160400000000     0.780140000000     0.036347   
C597     C      0.019760000000     0.151810000000     0.785380000000    -0.0860827  
C598     C      0.035950000000     0.160680000000     0.811560000000     0.072995   
C599     C      0.021840000000     0.185610000000     0.827990000000     0.0737929  
C600     C      0.988170000000     0.152410000000     0.751550000000     0.0348177  
C601     C      0.974030000000     0.128670000000     0.744040000000    -0.085801   
C602     C      0.958060000000     0.121740000000     0.717640000000     0.0725737  
C603     C      0.970350000000     0.161220000000     0.705490000000     0.0734222  
C604     C      0.986230000000     0.168720000000     0.731810000000    -0.0868735  
C605     C      0.854280000000     0.169190000000     0.651740000000    -0.0858572  
C606     C      0.837930000000     0.157240000000     0.677110000000     0.0357176  
C607     C      0.836660000000     0.137130000000     0.690470000000    -0.0860792  
C608     C      0.851530000000     0.129560000000     0.678720000000     0.0737008  
C609     C      0.868670000000     0.160960000000     0.640300000000     0.0738692  
C610     C      0.822370000000     0.165730000000     0.689560000000     0.0358582  
C611     C      0.815880000000     0.163470000000     0.723320000000    -0.0859822  
C612     C      0.801340000000     0.171590000000     0.734520000000     0.0744019  
C613     C      0.799610000000     0.184450000000     0.679960000000     0.073875   
C614     C      0.813880000000     0.176270000000     0.667820000000    -0.0862093  
C615     C      0.299430000000     0.826350000000     0.708880000000    -0.0866685  
C616     C      0.319500000000     0.826450000000     0.719830000000     0.0358767  
C617     C      0.318180000000     0.814320000000     0.749150000000    -0.0862794  
C618     C      0.296880000000     0.801640000000     0.765930000000     0.0738422  
C619     C      0.278470000000     0.813410000000     0.726110000000     0.0743102  
C620     C      0.340920000000     0.837380000000     0.698930000000     0.0361465  
C621     C      0.353040000000     0.825580000000     0.692830000000    -0.0865705  
C622     C      0.370940000000     0.834220000000     0.669220000000     0.0743901  
C623     C      0.366210000000     0.866720000000     0.658960000000     0.0749606  
C624     C      0.348140000000     0.858530000000     0.682360000000    -0.0867413  
C625     C      0.495160000000     0.854260000000     0.636630000000    -0.0864268  
C626     C      0.488360000000     0.830680000000     0.633260000000     0.0359773  
C627     C      0.470330000000     0.816920000000     0.610890000000    -0.0868752  
C628     C      0.458500000000     0.826380000000     0.594360000000     0.0744942  
C629     C      0.482920000000     0.863110000000     0.619770000000     0.0738823  
C630     C      0.498190000000     0.820030000000     0.655750000000     0.0356372  
C631     C      0.521920000000     0.831850000000     0.664280000000    -0.086126   
C632     C      0.530010000000     0.822760000000     0.688930000000     0.0730154  
C633     C      0.491910000000     0.790240000000     0.695950000000     0.0735961  
C634     C      0.483290000000     0.798710000000     0.671360000000    -0.0864803  
C635     C      0.682110000000     0.190700000000     0.285800000000    -0.0866672  
C636     C      0.679360000000     0.173710000000     0.309020000000     0.0359549  
C637     C      0.696990000000     0.168140000000     0.311670000000    -0.0864475  
C638     C      0.717440000000     0.180530000000     0.293050000000     0.0738737  
C639     C      0.702740000000     0.202640000000     0.267390000000     0.0744256  
C640     C      0.659370000000     0.163480000000     0.332590000000     0.0357915  
C641     C      0.652620000000     0.177870000000     0.348610000000    -0.086708   
C642     C      0.635520000000     0.168730000000     0.373360000000     0.073822   
C643     C      0.630810000000     0.131180000000     0.365960000000     0.0732608  
C644     C      0.648050000000     0.139810000000     0.341230000000    -0.0862401  
C645     C      0.505020000000     0.134190000000     0.380350000000    -0.086816   
C646     C      0.506350000000     0.155150000000     0.389540000000     0.0359987  
C647     C      0.520270000000     0.167490000000     0.416940000000    -0.0865722  
C648     C      0.533240000000     0.159300000000     0.433520000000     0.0738976  
C649     C      0.518390000000     0.126670000000     0.397230000000     0.0743736  
C650     C      0.495050000000     0.165040000000     0.368580000000     0.0357596  
C651     C      0.507660000000     0.188420000000     0.358640000000    -0.0866555  
C652     C      0.498160000000     0.196850000000     0.335300000000     0.0737349  
C653     C      0.463380000000     0.160000000000     0.332850000000     0.0735228  
C654     C      0.472470000000     0.150890000000     0.355930000000    -0.0863943  
C655     C      0.671770000000     0.157230000000     0.643340000000    -0.0871643  
C656     C      0.672130000000     0.173230000000     0.620300000000     0.035768   
C657     C      0.688680000000     0.196910000000     0.624350000000    -0.0861308  
C658     C      0.704850000000     0.204000000000     0.650520000000     0.0731476  
C659     C      0.687920000000     0.164920000000     0.669340000000     0.0738577  
C660     C      0.655780000000     0.164890000000     0.591610000000     0.0355759  
C661     C      0.652750000000     0.145820000000     0.572790000000    -0.0869389  
C662     C      0.637060000000     0.137670000000     0.546200000000     0.073522   
C663     C      0.627010000000     0.166660000000     0.556450000000     0.0726254  
C664     C      0.642870000000     0.175500000000     0.583040000000    -0.0859608  
C665     C      0.504140000000     0.028180000000     0.525660000000    -0.0864161  
C666     C      0.504720000000     0.009480000000     0.510430000000     0.0359295  
C667     C      0.520960000000     0.014390000000     0.484780000000    -0.0862863  
C668     C      0.535910000000     0.037400000000     0.474830000000     0.0743552  
C669     C      0.519490000000     0.051000000000     0.515230000000     0.0738708  
C670     C      0.488600000000     0.985020000000     0.521220000000     0.0355828  
C671     C      0.482690000000     0.979560000000     0.554960000000    -0.0860031  
C672     C      0.467940000000     0.956420000000     0.564650000000     0.0736481  
C673     C      0.464640000000     0.943860000000     0.508460000000     0.072838   
C674     C      0.479160000000     0.966800000000     0.497870000000    -0.08619    
C675     C      0.010200000000     0.818700000000     0.525030000000    -0.0850116  
C676     C      0.999890000000     0.831770000000     0.534350000000     0.0339003  
C677     C      0.008640000000     0.854020000000     0.520630000000    -0.0852705  
C678     C      0.026540000000     0.862320000000     0.497080000000     0.0734818  
C679     C      0.028340000000     0.827690000000     0.501640000000     0.0729829  
C680     C      0.978800000000     0.821650000000     0.555810000000     0.0363165  
C681     C      0.960130000000     0.799210000000     0.549380000000    -0.0868048  
C682     C      0.939010000000     0.791150000000     0.566140000000     0.0739076  
C683     C      0.954850000000     0.826270000000     0.597260000000     0.0739783  
C684     C      0.976190000000     0.835010000000     0.580670000000    -0.0869259  
C685     C      0.155570000000     0.958740000000     0.490100000000    -0.0866817  
C686     C      0.155100000000     0.978540000000     0.479350000000     0.0360348  
C687     C      0.141950000000     0.976730000000     0.450950000000    -0.0865723  
C688     C      0.128890000000     0.955230000000     0.434910000000     0.0742718  
C689     C      0.142190000000     0.937530000000     0.473640000000     0.0744186  
C690     C      0.166540000000     0.000240000000     0.499530000000     0.035992   
C691     C      0.154590000000     0.012020000000     0.506950000000    -0.0866897  
C692     C      0.164040000000     0.030450000000     0.529670000000     0.0741925  
C693     C      0.197550000000     0.026860000000     0.536430000000     0.0744971  
C694     C      0.188530000000     0.008220000000     0.513960000000    -0.0867475  
C695     C      0.310050000000     0.804070000000     0.171040000000    -0.0865794  
C696     C      0.322880000000     0.828080000000     0.164770000000     0.0360024  
C697     C      0.316200000000     0.842530000000     0.180850000000    -0.0866523  
C698     C      0.297850000000     0.833040000000     0.203860000000     0.0746132  
C699     C      0.291950000000     0.795220000000     0.194320000000     0.0741055  
C700     C      0.344420000000     0.838050000000     0.144200000000     0.0358755  
C701     C      0.364920000000     0.857620000000     0.155490000000    -0.0866595  
C702     C      0.385870000000     0.865010000000     0.138580000000     0.0742206  
C703     C      0.366600000000     0.835020000000     0.098370000000     0.0737148  
C704     C      0.345320000000     0.827010000000     0.114860000000    -0.0864033  
C705     C      0.190460000000     0.680020000000     0.247420000000    -0.0866143  
C706     C      0.173080000000     0.676460000000     0.224390000000     0.0359595  
C707     C      0.167070000000     0.693740000000     0.221020000000    -0.0864891  
C708     C      0.179450000000     0.714630000000     0.238670000000     0.0739719  
C709     C      0.202410000000     0.701090000000     0.264810000000     0.07448    
C710     C      0.163010000000     0.656080000000     0.201510000000     0.0358725  
C711     C      0.177620000000     0.649380000000     0.186020000000    -0.086865   
C712     C      0.168710000000     0.632100000000     0.161560000000     0.0741377  
C713     C      0.130930000000     0.626990000000     0.168340000000     0.0733917  
C714     C      0.139320000000     0.644410000000     0.192800000000    -0.0862827  
C715     C      0.300470000000     0.792710000000     0.419920000000    -0.0867069  
C716     C      0.322990000000     0.812030000000     0.416580000000     0.0357479  
C717     C      0.329080000000     0.824580000000     0.386640000000    -0.0868404  
C718     C      0.312590000000     0.818160000000     0.361210000000     0.0732056  
C719     C      0.284510000000     0.786510000000     0.393680000000     0.0737373  
C720     C      0.339730000000     0.819970000000     0.444760000000     0.0356811  
C721     C      0.332890000000     0.823050000000     0.476490000000    -0.0867133  
C722     C      0.349310000000     0.832540000000     0.502150000000     0.0731773  
C723     C      0.378830000000     0.834850000000     0.466250000000     0.0737125  
C724     C      0.362940000000     0.825790000000     0.439820000000    -0.0867259  
C725     C      0.182220000000     0.817560000000     0.367780000000    -0.0862187  
C726     C      0.173050000000     0.827000000000     0.345250000000     0.0356813  
C727     C      0.179380000000     0.828630000000     0.311500000000    -0.0858853  
C728     C      0.194320000000     0.820800000000     0.301020000000     0.073463   
C729     C      0.196890000000     0.809680000000     0.356380000000     0.0729305  
C730     C      0.156870000000     0.834940000000     0.356880000000     0.0357208  
C731     C      0.140660000000     0.823050000000     0.382440000000    -0.0858813  
C732     C      0.125680000000     0.830760000000     0.393130000000     0.0738659  
C733     C      0.141970000000     0.861500000000     0.353590000000     0.0736039  
C734     C      0.157380000000     0.854430000000     0.342530000000    -0.0861831  
C735     C      0.677670000000     0.486550000000     0.356620000000    -0.0865965  
C736     C      0.667300000000     0.499400000000     0.366640000000     0.0357769  
C737     C      0.676270000000     0.522030000000     0.354100000000    -0.0864932  
C738     C      0.694610000000     0.530960000000     0.331090000000     0.0735664  
C739     C      0.695760000000     0.495890000000     0.333340000000     0.0735713  
C740     C      0.645950000000     0.488290000000     0.387580000000     0.0360436  
C741     C      0.626460000000     0.489860000000     0.378380000000    -0.0867623  
C742     C      0.605360000000     0.476640000000     0.395220000000     0.0744449  
C743     C      0.622700000000     0.461510000000     0.431510000000     0.0742651  
C744     C      0.644050000000     0.474320000000     0.414970000000    -0.0866209  
C745     C      0.824600000000     0.525000000000     0.313640000000    -0.0866506  
C746     C      0.819980000000     0.502290000000     0.307790000000     0.0358106  
C747     C      0.803440000000     0.488810000000     0.283450000000    -0.0864672  
C748     C      0.791110000000     0.497710000000     0.266830000000     0.0737847  
C749     C      0.811780000000     0.533220000000     0.296870000000     0.0739468  
C750     C      0.830670000000     0.492070000000     0.329350000000     0.0358707  
C751     C      0.854350000000     0.504820000000     0.337980000000    -0.0864108  
C752     C      0.863330000000     0.495830000000     0.361430000000     0.0734587  
C753     C      0.826130000000     0.461820000000     0.367430000000     0.0740123  
C754     C      0.816670000000     0.470120000000     0.343830000000    -0.0868518  
C755     C      0.977560000000     0.809230000000     0.001410000000    -0.0858046  
C756     C      0.990800000000     0.833450000000     0.996890000000     0.03475    
C757     C      0.985520000000     0.847670000000     0.016420000000    -0.0863454  
C758     C      0.967950000000     0.837740000000     0.040410000000     0.0738765  
C759     C      0.959970000000     0.799850000000     0.025640000000     0.0732344  
C760     C      0.011140000000     0.844180000000     0.973870000000     0.0372269  
C761     C      0.016300000000     0.864080000000     0.955250000000    -0.0873317  
C762     C      0.037320000000     0.875990000000     0.937740000000     0.0746343  
C763     C      0.047600000000     0.848210000000     0.954850000000     0.0748691  
C764     C      0.026750000000     0.835860000000     0.972630000000    -0.0869673  
C765     C      0.835110000000     0.800250000000     0.043370000000    -0.0867567  
C766     C      0.836220000000     0.821020000000     0.053080000000     0.0359811  
C767     C      0.850050000000     0.833170000000     0.080640000000    -0.0866586  
C768     C      0.863140000000     0.824990000000     0.096890000000     0.0738964  
C769     C      0.848590000000     0.792730000000     0.059930000000     0.0742219  
C770     C      0.824760000000     0.830930000000     0.032510000000     0.0357918  
C771     C      0.837220000000     0.854400000000     0.022960000000    -0.0866909  
C772     C      0.827610000000     0.862890000000     0.999890000000     0.0735977  
C773     C      0.793010000000     0.825900000000     0.996990000000     0.0735498  
C774     C      0.802210000000     0.816740000000     0.019790000000    -0.0865454  
C775     C      0.972360000000     0.838640000000     0.247060000000    -0.0856895  
C776     C      0.986990000000     0.829480000000     0.252700000000     0.0349289  
C777     C      0.985370000000     0.812100000000     0.231240000000    -0.0867827  
C778     C      0.969330000000     0.804110000000     0.205100000000     0.0737652  
C779     C      0.956300000000     0.830070000000     0.220720000000     0.0727149  
C780     C      0.003630000000     0.837510000000     0.281090000000     0.0362886  
C781     C      0.017890000000     0.861270000000     0.288340000000    -0.0859741  
C782     C      0.034100000000     0.868290000000     0.314430000000     0.0728682  
C783     C      0.021900000000     0.828840000000     0.326710000000     0.0734529  
C784     C      0.005720000000     0.821260000000     0.300760000000    -0.0862699  
C785     C      0.815110000000     0.632160000000     0.166240000000    -0.0862416  
C786     C      0.822280000000     0.651210000000     0.187840000000     0.0358721  
C787     C      0.814400000000     0.646750000000     0.221020000000    -0.0861186  
C788     C      0.799600000000     0.623870000000     0.231700000000     0.0743759  
C789     C      0.800560000000     0.609490000000     0.177900000000     0.0738011  
C790     C      0.837740000000     0.675540000000     0.175830000000     0.0358206  
C791     C      0.855150000000     0.680700000000     0.151930000000    -0.0860046  
C792     C      0.869350000000     0.703600000000     0.140860000000     0.0740628  
C793     C      0.849920000000     0.716630000000     0.176810000000     0.0739627  
C794     C      0.835200000000     0.693910000000     0.188100000000    -0.0862852  
C795     C      0.649410000000     0.508550000000     0.844900000000    -0.0865571  
C796     C      0.657460000000     0.494290000000     0.831960000000     0.035842   
C797     C      0.646050000000     0.470790000000     0.841310000000    -0.0866774  
C798     C      0.627860000000     0.462310000000     0.864410000000     0.0735948  
C799     C      0.630950000000     0.499400000000     0.867740000000     0.073609   
C800     C      0.678930000000     0.504180000000     0.811320000000     0.0359364  
C801     C      0.698880000000     0.524900000000     0.821030000000    -0.0867601  
C802     C      0.719930000000     0.532420000000     0.804330000000     0.0742918  
C803     C      0.701720000000     0.500240000000     0.767250000000     0.0738895  
C804     C      0.680390000000     0.492060000000     0.783640000000    -0.086479   
C805     C      0.470550000000     0.311820000000     0.861480000000    -0.0864996  
C806     C      0.494170000000     0.323270000000     0.870460000000     0.035925   
C807     C      0.508560000000     0.315890000000     0.856080000000    -0.0867822  
C808     C      0.499530000000     0.298210000000     0.832190000000     0.0740238  
C809     C      0.462010000000     0.293940000000     0.837740000000     0.0736352  
C810     C      0.504460000000     0.344220000000     0.892160000000     0.0359436  
C811     C      0.499560000000     0.362050000000     0.886180000000    -0.0865459  
C812     C      0.512200000000     0.383310000000     0.902820000000     0.0739623  
C813     C      0.533140000000     0.369110000000     0.933090000000     0.0739955  
C814     C      0.520990000000     0.347680000000     0.916610000000    -0.0865797  
C815     C      0.652600000000     0.503640000000     0.063980000000    -0.0870286  
C816     C      0.653670000000     0.487380000000     0.084960000000     0.0357486  
C817     C      0.638630000000     0.463590000000     0.078790000000    -0.086202   
C818     C      0.622590000000     0.456580000000     0.052470000000     0.0729682  
C819     C      0.636630000000     0.496050000000     0.037740000000     0.0738617  
C820     C      0.670110000000     0.495460000000     0.113540000000     0.0357464  
C821     C      0.684540000000     0.486150000000     0.119710000000    -0.0861863  
C822     C      0.700610000000     0.494930000000     0.146020000000     0.072981   
C823     C      0.687770000000     0.521190000000     0.160760000000     0.0739214  
C824     C      0.671790000000     0.513070000000     0.134530000000    -0.087026   
C825     C      0.294800000000     0.468040000000     0.213920000000    -0.0866484  
C826     C      0.314250000000     0.489880000000     0.221000000000     0.0360376  
C827     C      0.312810000000     0.502950000000     0.247380000000    -0.0867615  
C828     C      0.291890000000     0.494630000000     0.264880000000     0.0744691  
C829     C      0.274100000000     0.460360000000     0.231710000000     0.07433    
C830     C      0.334950000000     0.499880000000     0.198770000000     0.0356353  
C831     C      0.344130000000     0.486290000000     0.187050000000    -0.0863228  
C832     C      0.361840000000     0.495360000000     0.163010000000     0.0729591  
C833     C      0.361890000000     0.531070000000     0.162600000000     0.0733644  
C834     C      0.344450000000     0.522690000000     0.186860000000    -0.0865602  
C835     C      0.504180000000     0.687320000000     0.155100000000    -0.0858197  
C836     C      0.503580000000     0.666170000000     0.160750000000     0.0357888  
C837     C      0.514460000000     0.664280000000     0.189700000000    -0.0858482  
C838     C      0.524400000000     0.682550000000     0.212680000000     0.074942   
C839     C      0.513710000000     0.705000000000     0.179110000000     0.0735117  
C840     C      0.490160000000     0.645620000000     0.138270000000     0.0357809  
C841     C      0.470150000000     0.642280000000     0.121340000000    -0.0855773  
C842     C      0.456160000000     0.621620000000     0.103800000000     0.0743195  
C843     C      0.481270000000     0.607450000000     0.118630000000     0.0740362  
C844     C      0.496040000000     0.628150000000     0.135510000000    -0.086139   
C845     C      0.349180000000     0.529840000000     0.947110000000    -0.0860712  
C846     C      0.333740000000     0.506060000000     0.941470000000     0.0355505  
C847     C      0.334640000000     0.489810000000     0.962650000000    -0.0871441  
C848     C      0.350840000000     0.497380000000     0.988560000000     0.0734764  
C849     C      0.365480000000     0.536840000000     0.973100000000     0.0725735  
C850     C      0.317200000000     0.497880000000     0.913050000000     0.0357988  
C851     C      0.302370000000     0.506760000000     0.907290000000    -0.0862513  
C852     C      0.286130000000     0.497730000000     0.881170000000     0.0730302  
C853     C      0.299650000000     0.472110000000     0.865880000000     0.0738999  
C854     C      0.315750000000     0.480440000000     0.891910000000    -0.0872657  
C855     C      0.509530000000     0.481600000000     0.028180000000    -0.0862358  
C856     C      0.501090000000     0.491490000000     0.005180000000     0.0359081  
C857     C      0.508320000000     0.493510000000     0.971790000000    -0.0860798  
C858     C      0.523630000000     0.485930000000     0.962240000000     0.0742946  
C859     C      0.524490000000     0.473840000000     0.017640000000     0.0738554  
C860     C      0.484950000000     0.499700000000     0.015990000000     0.0359405  
C861     C      0.468620000000     0.488220000000     0.041560000000    -0.0860561  
C862     C      0.454020000000     0.496460000000     0.051920000000     0.0743622  
C863     C      0.470620000000     0.526710000000     0.011660000000     0.0743689  
C864     C      0.485770000000     0.519200000000     0.001050000000    -0.0862612  
H1       H      0.662750000000     0.847570000000     0.391550000000     0.0535132  
H2       H      0.702200000000     0.874210000000     0.410280000000     0.0321189  
H3       H      0.729170000000     0.847140000000     0.337120000000     0.0303349  
H4       H      0.689940000000     0.819540000000     0.318600000000     0.0532362  
H5       H      0.657700000000     0.816340000000     0.289350000000     0.0532623  
H6       H      0.618090000000     0.790020000000     0.270860000000     0.0303795  
H7       H      0.593400000000     0.782740000000     0.371250000000     0.0301544  
H8       H      0.632850000000     0.808160000000     0.390950000000     0.0532296  
H9       H      0.873470000000     0.017640000000     0.258420000000     0.0537819  
H10      H      0.886600000000     0.046070000000     0.213090000000     0.0313215  
H11      H      0.815720000000     0.022450000000     0.186520000000     0.0308417  
H12      H      0.802100000000     0.994010000000     0.231140000000     0.0537547  
H13      H      0.802110000000     0.995070000000     0.292780000000     0.0538101  
H14      H      0.787200000000     0.966800000000     0.337600000000     0.0309719  
H15      H      0.836490000000     0.945560000000     0.313820000000     0.0312486  
H16      H      0.851910000000     0.973860000000     0.268290000000     0.0537769  
H17      H      0.865900000000     0.171350000000     0.205020000000     0.0531564  
H18      H      0.878220000000     0.144460000000     0.186880000000     0.0302333  
H19      H      0.821780000000     0.113490000000     0.117200000000     0.0322038  
H20      H      0.808200000000     0.139280000000     0.135760000000     0.0533954  
H21      H      0.815920000000     0.177730000000     0.134710000000     0.0531761  
H22      H      0.801690000000     0.202800000000     0.154080000000     0.0301524  
H23      H      0.824080000000     0.200540000000     0.253380000000     0.0318204  
H24      H      0.837520000000     0.174510000000     0.235370000000     0.0532769  
H25      H      0.492430000000     0.677650000000     0.477460000000     0.0536231  
H26      H      0.482200000000     0.650460000000     0.523330000000     0.0318705  
H27      H      0.433110000000     0.594710000000     0.461440000000     0.0312072  
H28      H      0.442720000000     0.621600000000     0.414860000000     0.0533591  
H29      H      0.476790000000     0.642710000000     0.378790000000     0.0535667  
H30      H      0.494380000000     0.670010000000     0.333150000000     0.0319495  
H31      H      0.497470000000     0.724730000000     0.393170000000     0.0310882  
H32      H      0.479510000000     0.697690000000     0.439540000000     0.0533185  
H33      H      0.530490000000     0.503210000000     0.542900000000     0.053222   
H34      H      0.542930000000     0.476260000000     0.525410000000     0.0302728  
H35      H      0.488940000000     0.447350000000     0.451790000000     0.0322438  
H36      H      0.475370000000     0.473360000000     0.469430000000     0.0535147  
H37      H      0.484700000000     0.512680000000     0.468850000000     0.0532114  
H38      H      0.470100000000     0.537690000000     0.487220000000     0.0302972  
H39      H      0.486690000000     0.531490000000     0.588450000000     0.0303973  
H40      H      0.500590000000     0.505640000000     0.571260000000     0.0532962  
H41      H      0.205580000000     0.843450000000     0.875830000000     0.0532096  
H42      H      0.218410000000     0.816870000000     0.857940000000     0.0303181  
H43      H      0.161060000000     0.784040000000     0.789970000000     0.0323129  
H44      H      0.147140000000     0.809640000000     0.808110000000     0.0536199  
H45      H      0.155250000000     0.848460000000     0.805400000000     0.0532867  
H46      H      0.140150000000     0.872950000000     0.823990000000     0.0315664  
H47      H      0.161980000000     0.871400000000     0.923910000000     0.030246   
H48      H      0.176500000000     0.846040000000     0.906550000000     0.0531418  
H49      H      0.471250000000     0.329890000000     0.632840000000     0.0538833  
H50      H      0.456890000000     0.301790000000     0.677930000000     0.0308837  
H51      H      0.504750000000     0.279310000000     0.651120000000     0.0312342  
H52      H      0.519630000000     0.307470000000     0.605380000000     0.0539637  
H53      H      0.541580000000     0.351440000000     0.595470000000     0.0538977  
H54      H      0.554130000000     0.379570000000     0.549800000000     0.0314459  
H55      H      0.482940000000     0.356370000000     0.525830000000     0.0307721  
H56      H      0.469890000000     0.328260000000     0.570890000000     0.053866   
H57      H      0.162750000000     0.982830000000     0.721470000000     0.0538411  
H58      H      0.181230000000     0.011150000000     0.677170000000     0.0310098  
H59      H      0.159230000000     0.055240000000     0.722130000000     0.0317292  
H60      H      0.140330000000     0.027060000000     0.767050000000     0.0536517  
H61      H      0.153200000000     0.012480000000     0.814650000000     0.0537623  
H62      H      0.141180000000     0.985100000000     0.860740000000     0.0316405  
H63      H      0.112700000000     0.927880000000     0.792260000000     0.0319098  
H64      H      0.124340000000     0.954800000000     0.745450000000     0.0536465  
H65      H      0.301410000000     0.147600000000     0.727490000000     0.0532604  
H66      H      0.261990000000     0.123010000000     0.707160000000     0.0301194  
H67      H      0.287740000000     0.125790000000     0.608390000000     0.0317992  
H68      H      0.327370000000     0.151350000000     0.627380000000     0.0533598  
H69      H      0.358430000000     0.153880000000     0.658530000000     0.0533073  
H70      H      0.397820000000     0.180470000000     0.677520000000     0.0302114  
H71      H      0.372290000000     0.211440000000     0.746550000000     0.0323673  
H72      H      0.332790000000     0.185960000000     0.727160000000     0.0535062  
H73      H      0.843070000000     0.344440000000     0.139950000000     0.0537959  
H74      H      0.832680000000     0.316240000000     0.184520000000     0.030935   
H75      H      0.768690000000     0.269530000000     0.135040000000     0.0314741  
H76      H      0.778590000000     0.297510000000     0.089740000000     0.0536484  
H77      H      0.808620000000     0.313590000000     0.044460000000     0.0538319  
H78      H      0.824550000000     0.341240000000     0.998700000000     0.0314211  
H79      H      0.847030000000     0.398060000000     0.067110000000     0.0316883  
H80      H      0.831210000000     0.370820000000     0.113590000000     0.0536737  
H81      H      0.213530000000     0.688320000000     0.928740000000     0.0539544  
H82      H      0.226900000000     0.717270000000     0.884090000000     0.0313763  
H83      H      0.156190000000     0.696450000000     0.860530000000     0.0310202  
H84      H      0.142350000000     0.667540000000     0.904520000000     0.053934   
H85      H      0.143260000000     0.667490000000     0.966210000000     0.0538399  
H86      H      0.127950000000     0.638210000000     0.009720000000     0.0310165  
H87      H      0.174920000000     0.615010000000     0.981040000000     0.0312547  
H88      H      0.190720000000     0.644300000000     0.936820000000     0.0539219  
H89      H      0.972490000000     0.478050000000     0.056750000000     0.0530125  
H90      H      0.932860000000     0.452850000000     0.037690000000     0.031111   
H91      H      0.956530000000     0.460580000000     0.936670000000     0.0303366  
H92      H      0.996420000000     0.486680000000     0.954620000000     0.052854   
H93      H      0.029030000000     0.489730000000     0.983540000000     0.0535305  
H94      H      0.068330000000     0.517010000000     0.002430000000     0.0302192  
H95      H      0.041490000000     0.544020000000     0.075870000000     0.0325073  
H96      H      0.002060000000     0.517700000000     0.056900000000     0.0538842  
H97      H      0.469150000000     0.666150000000     0.733920000000     0.0531054  
H98      H      0.481450000000     0.701620000000     0.765040000000     0.0317514  
H99      H      0.552540000000     0.726170000000     0.739020000000     0.0301892  
H100     H      0.541310000000     0.690130000000     0.709920000000     0.0527095  
H101     H      0.525440000000     0.672280000000     0.660890000000     0.0530569  
H102     H      0.510800000000     0.640750000000     0.621220000000     0.0325297  
H103     H      0.450450000000     0.600290000000     0.681670000000     0.0299834  
H104     H      0.465330000000     0.630760000000     0.723580000000     0.0527636  
H105     H      0.852610000000     0.991110000000     0.943010000000     0.0539208  
H106     H      0.836950000000     0.953910000000     0.914130000000     0.0319345  
H107     H      0.773160000000     0.926990000000     0.968850000000     0.0309126  
H108     H      0.788180000000     0.963810000000     0.998040000000     0.0541211  
H109     H      0.802640000000     0.006680000000     0.993170000000     0.053857   
H110     H      0.818500000000     0.038050000000     0.034290000000     0.0317957  
H111     H      0.879660000000     0.032530000000     0.043750000000     0.0305911  
H112     H      0.864460000000     0.001380000000     0.002890000000     0.0542241  
H113     H      0.631280000000     0.793310000000     0.876860000000     0.0532892  
H114     H      0.591870000000     0.779430000000     0.857540000000     0.0305927  
H115     H      0.616830000000     0.835610000000     0.787610000000     0.0323979  
H116     H      0.656350000000     0.850820000000     0.807460000000     0.0533348  
H117     H      0.687920000000     0.844860000000     0.807140000000     0.053333   
H118     H      0.727360000000     0.859380000000     0.826680000000     0.0302423  
H119     H      0.702190000000     0.835460000000     0.925440000000     0.031943   
H120     H      0.662540000000     0.821810000000     0.907340000000     0.0533334  
H121     H      0.519730000000     0.189240000000     0.780920000000     0.0540094  
H122     H      0.504560000000     0.210940000000     0.751720000000     0.031958   
H123     H      0.444350000000     0.180660000000     0.814840000000     0.0307064  
H124     H      0.458920000000     0.158790000000     0.844420000000     0.0541867  
H125     H      0.535120000000     0.192470000000     0.838990000000     0.054029   
H126     H      0.550610000000     0.176080000000     0.878450000000     0.0303895  
H127     H      0.485550000000     0.111700000000     0.879030000000     0.0316757  
H128     H      0.469400000000     0.127620000000     0.839420000000     0.0538947  
H129     H      0.511740000000     0.859100000000     0.207520000000     0.0534331  
H130     H      0.498110000000     0.875930000000     0.165450000000     0.0315987  
H131     H      0.443980000000     0.807730000000     0.137050000000     0.0308013  
H132     H      0.457240000000     0.790380000000     0.178100000000     0.0538218  
H133     H      0.461120000000     0.785250000000     0.237000000000     0.0534945  
H134     H      0.476350000000     0.764200000000     0.267430000000     0.0302079  
H135     H      0.545890000000     0.815300000000     0.239240000000     0.0305708  
H136     H      0.531300000000     0.836500000000     0.207960000000     0.0538839  
H137     H      0.517960000000     0.853790000000     0.954800000000     0.0540887  
H138     H      0.505230000000     0.868920000000     0.000030000000     0.0309891  
H139     H      0.434130000000     0.816870000000     0.981660000000     0.0313827  
H140     H      0.446410000000     0.801080000000     0.935990000000     0.0541277  
H141     H      0.471000000000     0.781020000000     0.927420000000     0.0540399  
H142     H      0.486240000000     0.767660000000     0.882380000000     0.0308614  
H143     H      0.528180000000     0.837820000000     0.847760000000     0.030769   
H144     H      0.513510000000     0.851640000000     0.892200000000     0.0540184  
H145     H      0.488830000000     0.998260000000     0.959050000000     0.0534406  
H146     H      0.503180000000     0.038100000000     0.941440000000     0.0321788  
H147     H      0.532630000000     0.062970000000     0.038130000000     0.0302248  
H148     H      0.517620000000     0.023320000000     0.057230000000     0.0533145  
H149     H      0.521920000000     0.990510000000     0.053520000000     0.0534359  
H150     H      0.506270000000     0.950660000000     0.072260000000     0.0322127  
H151     H      0.446260000000     0.928350000000     0.010270000000     0.0304565  
H152     H      0.460730000000     0.968080000000     0.992140000000     0.0533987  
H153     H      0.189250000000     0.524370000000     0.112800000000     0.0539945  
H154     H      0.174330000000     0.545860000000     0.082410000000     0.0318407  
H155     H      0.112350000000     0.513930000000     0.141890000000     0.0307779  
H156     H      0.126630000000     0.492230000000     0.172580000000     0.0542206  
H157     H      0.202920000000     0.527740000000     0.172110000000     0.054109   
H158     H      0.217780000000     0.511980000000     0.213550000000     0.0306781  
H159     H      0.153870000000     0.446520000000     0.210670000000     0.0320712  
H160     H      0.138350000000     0.461820000000     0.169050000000     0.0540136  
H161     H      0.204610000000     0.170580000000     0.529200000000     0.0538648  
H162     H      0.218510000000     0.148410000000     0.559500000000     0.030672   
H163     H      0.154790000000     0.113800000000     0.614950000000     0.0316921  
H164     H      0.140390000000     0.135960000000     0.585380000000     0.0537434  
H165     H      0.127450000000     0.134320000000     0.527780000000     0.0539254  
H166     H      0.112650000000     0.150530000000     0.487120000000     0.0306405  
H167     H      0.177070000000     0.215510000000     0.489480000000     0.0315075  
H168     H      0.192490000000     0.199870000000     0.530720000000     0.0535388  
H169     H      0.171710000000     0.327920000000     0.409480000000     0.0533305  
H170     H      0.158730000000     0.288130000000     0.425830000000     0.0322585  
H171     H      0.131510000000     0.264090000000     0.327920000000     0.030147   
H172     H      0.145290000000     0.303760000000     0.310010000000     0.0533256  
H173     H      0.199210000000     0.359490000000     0.378380000000     0.0531783  
H174     H      0.212430000000     0.399120000000     0.360940000000     0.0302089  
H175     H      0.153740000000     0.375120000000     0.295740000000     0.0319876  
H176     H      0.139230000000     0.335330000000     0.313820000000     0.0533769  
H177     H      0.203840000000     0.668660000000     0.683680000000     0.0537758  
H178     H      0.217930000000     0.699190000000     0.725250000000     0.0308529  
H179     H      0.163800000000     0.713430000000     0.699990000000     0.0317297  
H180     H      0.149330000000     0.683050000000     0.657470000000     0.0534906  
H181     H      0.129440000000     0.640630000000     0.656620000000     0.0538929  
H182     H      0.114040000000     0.604940000000     0.624470000000     0.0303479  
H183     H      0.182920000000     0.623760000000     0.593130000000     0.0292803  
H184     H      0.198970000000     0.659950000000     0.624500000000     0.0533122  
H185     H      0.148340000000     0.493030000000     0.396400000000     0.053803   
H186     H      0.158350000000     0.473870000000     0.353620000000     0.0306883  
H187     H      0.227950000000     0.505110000000     0.391550000000     0.0312292  
H188     H      0.218520000000     0.524830000000     0.434890000000     0.0534509  
H189     H      0.193830000000     0.514710000000     0.485550000000     0.0535733  
H190     H      0.179000000000     0.528640000000     0.529920000000     0.0314176  
H191     H      0.142030000000     0.545570000000     0.458480000000     0.0321199  
H192     H      0.156730000000     0.532040000000     0.413440000000     0.0536267  
H193     H      0.812330000000     0.332590000000     0.420510000000     0.0537022  
H194     H      0.826530000000     0.369660000000     0.449190000000     0.0318815  
H195     H      0.882820000000     0.402950000000     0.379510000000     0.0307344  
H196     H      0.869090000000     0.366420000000     0.350190000000     0.0539579  
H197     H      0.793780000000     0.318090000000     0.365690000000     0.0539132  
H198     H      0.778000000000     0.286240000000     0.325980000000     0.0306473  
H199     H      0.845580000000     0.294330000000     0.312490000000     0.031591   
H200     H      0.862020000000     0.326300000000     0.352520000000     0.0537018  
H201     H      0.968680000000     0.460130000000     0.538270000000     0.0527918  
H202     H      0.929270000000     0.447170000000     0.519640000000     0.0302241  
H203     H      0.954580000000     0.505540000000     0.453630000000     0.0321635  
H204     H      0.994070000000     0.519750000000     0.472790000000     0.0531465  
H205     H      0.025400000000     0.513310000000     0.470550000000     0.0535084  
H206     H      0.064920000000     0.528420000000     0.490120000000     0.0320973  
H207     H      0.039830000000     0.502350000000     0.588170000000     0.0303805  
H208     H      0.000000000000     0.487970000000     0.570010000000     0.0534042  
H209     H      0.456530000000     0.295950000000     0.335010000000     0.054096   
H210     H      0.442370000000     0.259490000000     0.305210000000     0.0309788  
H211     H      0.506580000000     0.288020000000     0.251160000000     0.031833   
H212     H      0.521380000000     0.324920000000     0.280640000000     0.0538686  
H213     H      0.532920000000     0.335230000000     0.340400000000     0.05413    
H214     H      0.547370000000     0.366250000000     0.381400000000     0.0307168  
H215     H      0.485040000000     0.369700000000     0.372260000000     0.0316997  
H216     H      0.469940000000     0.338480000000     0.330950000000     0.0538239  
H217     H      0.521750000000     0.208620000000     0.105440000000     0.0539962  
H218     H      0.506310000000     0.221150000000     0.151210000000     0.0314588  
H219     H      0.460930000000     0.150050000000     0.179460000000     0.031055   
H220     H      0.475800000000     0.137050000000     0.134230000000     0.0541376  
H221     H      0.544960000000     0.187550000000     0.095570000000     0.0539098  
H222     H      0.557670000000     0.172460000000     0.049560000000     0.0314246  
H223     H      0.486580000000     0.122960000000     0.026150000000     0.0311109  
H224     H      0.473400000000     0.137440000000     0.071660000000     0.0541658  
H225     H      0.215140000000     0.031720000000     0.036270000000     0.0527879  
H226     H      0.225560000000     0.067480000000     0.065580000000     0.0303701  
H227     H      0.155530000000     0.038530000000     0.100640000000     0.0318184  
H228     H      0.143870000000     0.003090000000     0.069620000000     0.0531995  
H229     H      0.142790000000     0.968760000000     0.059000000000     0.0529544  
H230     H      0.127500000000     0.937380000000     0.018450000000     0.0300785  
H231     H      0.182100000000     0.980170000000     0.950290000000     0.0319401  
H232     H      0.196940000000     0.012420000000     0.988800000000     0.0531693  
H233     H      0.141010000000     0.116860000000     0.260680000000     0.0539375  
H234     H      0.156100000000     0.104090000000     0.214660000000     0.0308661  
H235     H      0.202740000000     0.175130000000     0.187450000000     0.0309444  
H236     H      0.188320000000     0.188360000000     0.232950000000     0.054163   
H237     H      0.190220000000     0.187150000000     0.295980000000     0.0540501  
H238     H      0.177180000000     0.202150000000     0.341060000000     0.0309181  
H239     H      0.105980000000     0.154840000000     0.315180000000     0.0315797  
H240     H      0.118540000000     0.139220000000     0.269680000000     0.0541584  
H241     H      0.302020000000     0.128130000000     0.209360000000     0.0532699  
H242     H      0.262810000000     0.115190000000     0.190060000000     0.0305047  
H243     H      0.288790000000     0.172540000000     0.122080000000     0.0322714  
H244     H      0.328160000000     0.186840000000     0.141980000000     0.0533765  
H245     H      0.359470000000     0.180480000000     0.141300000000     0.0533221  
H246     H      0.398720000000     0.194360000000     0.161250000000     0.0302367  
H247     H      0.372670000000     0.168750000000     0.259130000000     0.0320503  
H248     H      0.333230000000     0.155760000000     0.240670000000     0.0533325  
H249     H      0.793520000000     0.460340000000     0.849860000000     0.0538765  
H250     H      0.779540000000     0.476870000000     0.808580000000     0.0308415  
H251     H      0.834160000000     0.545600000000     0.833740000000     0.0316181  
H252     H      0.848550000000     0.529600000000     0.876000000000     0.0534627  
H253     H      0.868170000000     0.506980000000     0.876080000000     0.0538595  
H254     H      0.883440000000     0.486200000000     0.906880000000     0.0303789  
H255     H      0.814590000000     0.435710000000     0.938730000000     0.0297414  
H256     H      0.798690000000     0.456350000000     0.908780000000     0.0534377  
H257     H      0.855130000000     0.520200000000     0.628560000000     0.053881   
H258     H      0.841710000000     0.534750000000     0.673610000000     0.0309926  
H259     H      0.770710000000     0.487040000000     0.647230000000     0.0314376  
H260     H      0.783650000000     0.472000000000     0.601450000000     0.0539145  
H261     H      0.805200000000     0.449940000000     0.591120000000     0.0539081  
H262     H      0.820650000000     0.437340000000     0.545450000000     0.0312265  
H263     H      0.869820000000     0.508460000000     0.521900000000     0.0309528  
H264     H      0.854880000000     0.521540000000     0.566860000000     0.0539249  
H265     H      0.797280000000     0.792670000000     0.503440000000     0.0538401  
H266     H      0.813230000000     0.776810000000     0.543510000000     0.0314898  
H267     H      0.879210000000     0.840140000000     0.539940000000     0.0305069  
H268     H      0.863930000000     0.856440000000     0.500030000000     0.0540573  
H269     H      0.788020000000     0.824750000000     0.507620000000     0.0541319  
H270     H      0.774090000000     0.847100000000     0.477850000000     0.0307882  
H271     H      0.833360000000     0.874860000000     0.413040000000     0.0319519  
H272     H      0.847880000000     0.852660000000     0.442390000000     0.053974   
H273     H      0.873480000000     0.852720000000     0.760230000000     0.053958   
H274     H      0.886080000000     0.837590000000     0.714130000000     0.0313875  
H275     H      0.814880000000     0.789370000000     0.689370000000     0.0310373  
H276     H      0.801820000000     0.803870000000     0.735020000000     0.0541668  
H277     H      0.850680000000     0.874420000000     0.769850000000     0.0539653  
H278     H      0.835450000000     0.887010000000     0.815820000000     0.0315618  
H279     H      0.789400000000     0.815910000000     0.843410000000     0.0310591  
H280     H      0.804030000000     0.802840000000     0.797910000000     0.0541282  
H281     H      0.820060000000     0.664090000000     0.624800000000     0.0534554  
H282     H      0.833070000000     0.703580000000     0.606710000000     0.0321112  
H283     H      0.861660000000     0.729570000000     0.703440000000     0.0302124  
H284     H      0.847920000000     0.690270000000     0.723030000000     0.0532975  
H285     H      0.853810000000     0.658470000000     0.720160000000     0.0533548  
H286     H      0.839500000000     0.618960000000     0.739490000000     0.0320248  
H287     H      0.779640000000     0.594090000000     0.676440000000     0.0305532  
H288     H      0.792690000000     0.633430000000     0.657750000000     0.0533414  
H289     H      0.003910000000     0.198510000000     0.026340000000     0.0541334  
H290     H      0.036240000000     0.214280000000     0.986830000000     0.0317173  
H291     H      0.037550000000     0.150650000000     0.990530000000     0.0303909  
H292     H      0.005420000000     0.134420000000     0.029890000000     0.0543819  
H293     H      0.962180000000     0.166720000000     0.021060000000     0.0539439  
H294     H      0.925170000000     0.144390000000     0.049800000000     0.0306403  
H295     H      0.955070000000     0.115810000000     0.115460000000     0.03201    
H296     H      0.992490000000     0.137980000000     0.087160000000     0.0537161  
H297     H      0.136480000000     0.138200000000     0.941660000000     0.0537157  
H298     H      0.114480000000     0.153280000000     0.913100000000     0.0318056  
H299     H      0.150480000000     0.216640000000     0.969050000000     0.0309004  
H300     H      0.172680000000     0.202180000000     0.998000000000     0.0541068  
H301     H      0.201740000000     0.188890000000     0.993500000000     0.0537336  
H302     H      0.217290000000     0.173330000000     0.034750000000     0.0316612  
H303     H      0.150790000000     0.110860000000     0.041770000000     0.0309138  
H304     H      0.134780000000     0.125740000000     0.000840000000     0.0541509  
H305     H      0.308740000000     0.461650000000     0.647390000000     0.0533008  
H306     H      0.278170000000     0.445540000000     0.689710000000     0.0315087  
H307     H      0.291920000000     0.514070000000     0.713610000000     0.0310177  
H308     H      0.322630000000     0.530720000000     0.672370000000     0.0537904  
H309     H      0.332660000000     0.534880000000     0.614070000000     0.0533828  
H310     H      0.369760000000     0.555850000000     0.584980000000     0.030085   
H311     H      0.387620000000     0.505580000000     0.617490000000     0.0305609  
H312     H      0.351040000000     0.484520000000     0.647560000000     0.053903   
H313     H      0.143080000000     0.445690000000     0.698480000000     0.0528363  
H314     H      0.168380000000     0.435160000000     0.727420000000     0.0303083  
H315     H      0.207620000000     0.503870000000     0.768050000000     0.0316928  
H316     H      0.183940000000     0.515710000000     0.737560000000     0.0532341  
H317     H      0.150430000000     0.516150000000     0.726050000000     0.0530729  
H318     H      0.135680000000     0.532720000000     0.685710000000     0.0299493  
H319     H      0.127150000000     0.481520000000     0.613690000000     0.0314064  
H320     H      0.143290000000     0.465510000000     0.652100000000     0.0532612  
H321     H      0.154110000000     0.326740000000     0.904220000000     0.0534779  
H322     H      0.128950000000     0.287050000000     0.923130000000     0.032162   
H323     H      0.128990000000     0.261350000000     0.825250000000     0.0302626  
H324     H      0.153160000000     0.300810000000     0.804920000000     0.0533453  
H325     H      0.190530000000     0.333710000000     0.805330000000     0.0534278  
H326     H      0.213930000000     0.373320000000     0.785010000000     0.0323242  
H327     H      0.179640000000     0.396130000000     0.852530000000     0.0305972  
H328     H      0.155080000000     0.356610000000     0.872320000000     0.0534307  
H329     H      0.678110000000     0.200420000000     0.874170000000     0.0538253  
H330     H      0.709950000000     0.216010000000     0.834440000000     0.0307274  
H331     H      0.705580000000     0.149710000000     0.827760000000     0.0312953  
H332     H      0.673630000000     0.133460000000     0.867890000000     0.0535668  
H333     H      0.632850000000     0.124140000000     0.863670000000     0.0539728  
H334     H      0.595680000000     0.109920000000     0.891370000000     0.0310131  
H335     H      0.625830000000     0.168820000000     0.956860000000     0.0316278  
H336     H      0.663560000000     0.183570000000     0.929770000000     0.0535248  
H337     H      0.802510000000     0.323390000000     0.795030000000     0.0533047  
H338     H      0.778450000000     0.287170000000     0.765700000000     0.0320335  
H339     H      0.826920000000     0.264730000000     0.788110000000     0.0302637  
H340     H      0.852380000000     0.301410000000     0.815730000000     0.0527168  
H341     H      0.854490000000     0.319310000000     0.865530000000     0.0532223  
H342     H      0.871690000000     0.351330000000     0.904570000000     0.0317715  
H343     H      0.851270000000     0.390570000000     0.843210000000     0.0300407  
H344     H      0.835150000000     0.359490000000     0.802180000000     0.0528845  
H345     H      0.991570000000     0.126780000000     0.503160000000     0.0538729  
H346     H      0.960500000000     0.111720000000     0.544180000000     0.0306117  
H347     H      0.956130000000     0.173560000000     0.536230000000     0.0316684  
H348     H      0.987440000000     0.189300000000     0.494990000000     0.0535516  
H349     H      0.001710000000     0.139020000000     0.443200000000     0.0542611  
H350     H      0.038740000000     0.154390000000     0.413800000000     0.031885   
H351     H      0.066900000000     0.217690000000     0.469920000000     0.0309038  
H352     H      0.030270000000     0.202970000000     0.499590000000     0.0544318  
H353     H      0.858270000000     0.989170000000     0.523870000000     0.0542613  
H354     H      0.841570000000     0.957460000000     0.483860000000     0.0307178  
H355     H      0.776690000000     0.956420000000     0.486920000000     0.0316574  
H356     H      0.793030000000     0.988490000000     0.526970000000     0.0540329  
H357     H      0.824980000000     0.031170000000     0.521420000000     0.054274   
H358     H      0.847710000000     0.067680000000     0.551320000000     0.0306229  
H359     H      0.877100000000     0.036630000000     0.613200000000     0.0320843  
H360     H      0.854670000000     0.999810000000     0.583570000000     0.054211   
H361     H      0.019500000000     0.138760000000     0.768890000000     0.0542508  
H362     H      0.047650000000     0.153920000000     0.814660000000     0.031479   
H363     H      0.022130000000     0.198820000000     0.844240000000     0.031286   
H364     H      0.994080000000     0.184220000000     0.799040000000     0.0533398  
H365     H      0.974970000000     0.115540000000     0.758870000000     0.0536747  
H366     H      0.947200000000     0.103230000000     0.712680000000     0.0313039  
H367     H      0.969430000000     0.174460000000     0.690850000000     0.0307811  
H368     H      0.997050000000     0.187240000000     0.736540000000     0.0538525  
H369     H      0.824070000000     0.127030000000     0.709660000000     0.0532373  
H370     H      0.849980000000     0.113940000000     0.689740000000     0.0303181  
H371     H      0.881090000000     0.170730000000     0.620710000000     0.0322297  
H372     H      0.856260000000     0.185040000000     0.641000000000     0.0534556  
H373     H      0.822270000000     0.155810000000     0.741230000000     0.0533708  
H374     H      0.796810000000     0.169590000000     0.760810000000     0.0320168  
H375     H      0.793480000000     0.192530000000     0.662310000000     0.0304233  
H376     H      0.817970000000     0.178020000000     0.641430000000     0.0533477  
H377     H      0.333380000000     0.814210000000     0.758710000000     0.0536663  
H378     H      0.296360000000     0.791980000000     0.788050000000     0.0316681  
H379     H      0.263180000000     0.813220000000     0.716190000000     0.0308925  
H380     H      0.299570000000     0.835290000000     0.686200000000     0.0540535  
H381     H      0.347970000000     0.809110000000     0.704910000000     0.0538975  
H382     H      0.379340000000     0.824140000000     0.664350000000     0.0305738  
H383     H      0.370850000000     0.882780000000     0.645900000000     0.0315287  
H384     H      0.339490000000     0.868400000000     0.686770000000     0.0537571  
H385     H      0.464850000000     0.798730000000     0.607050000000     0.0534737  
H386     H      0.444060000000     0.814970000000     0.578240000000     0.0307035  
H387     H      0.488050000000     0.881190000000     0.624150000000     0.0303458  
H388     H      0.508950000000     0.865520000000     0.653700000000     0.053902   
H389     H      0.534070000000     0.848260000000     0.652510000000     0.0534209  
H390     H      0.548350000000     0.832630000000     0.695510000000     0.0316837  
H391     H      0.479630000000     0.774010000000     0.708100000000     0.031052   
H392     H      0.464790000000     0.789080000000     0.665840000000     0.0539236  
H393     H      0.695600000000     0.155160000000     0.329360000000     0.0539153  
H394     H      0.731100000000     0.176360000000     0.296810000000     0.030562   
H395     H      0.704580000000     0.216220000000     0.250500000000     0.0315641  
H396     H      0.668680000000     0.195220000000     0.282590000000     0.0538589  
H397     H      0.661110000000     0.196320000000     0.343000000000     0.054089   
H398     H      0.631160000000     0.180580000000     0.385640000000     0.0305559  
H399     H      0.622620000000     0.112850000000     0.372330000000     0.0318354  
H400     H      0.652660000000     0.128080000000     0.329230000000     0.0536891  
H401     H      0.521540000000     0.183640000000     0.425040000000     0.0539578  
H402     H      0.544270000000     0.169590000000     0.454090000000     0.0318315  
H403     H      0.517460000000     0.110740000000     0.388640000000     0.0307657  
H404     H      0.494610000000     0.124210000000     0.359180000000     0.0542037  
H405     H      0.525240000000     0.199900000000     0.367610000000     0.0540208  
H406     H      0.508790000000     0.214870000000     0.327470000000     0.0305111  
H407     H      0.446070000000     0.148430000000     0.322980000000     0.0315012  
H408     H      0.462070000000     0.132770000000     0.363300000000     0.0538313  
H409     H      0.689540000000     0.209780000000     0.606920000000     0.0540988  
H410     H      0.717690000000     0.222400000000     0.652650000000     0.0311018  
H411     H      0.687090000000     0.151910000000     0.686510000000     0.030849   
H412     H      0.659050000000     0.138810000000     0.641280000000     0.0540783  
H413     H      0.662600000000     0.137300000000     0.578400000000     0.0541487  
H414     H      0.635290000000     0.122870000000     0.532260000000     0.0308457  
H415     H      0.617130000000     0.175120000000     0.550640000000     0.0313085  
H416     H      0.644690000000     0.190240000000     0.597150000000     0.053988   
H417     H      0.522370000000     0.000590000000     0.472660000000     0.0536966  
H418     H      0.548210000000     0.040440000000     0.454930000000     0.0325266  
H419     H      0.518440000000     0.064970000000     0.527580000000     0.0302342  
H420     H      0.491700000000     0.025250000000     0.545240000000     0.0533885  
H421     H      0.489760000000     0.992990000000     0.573970000000     0.0534127  
H422     H      0.463970000000     0.952880000000     0.591000000000     0.0316262  
H423     H      0.457820000000     0.930270000000     0.489620000000     0.0306039  
H424     H      0.482820000000     0.970180000000     0.471460000000     0.0532893  
H425     H      0.001010000000     0.864600000000     0.526910000000     0.0540521  
H426     H      0.032370000000     0.879390000000     0.486370000000     0.0309353  
H427     H      0.035630000000     0.816940000000     0.494520000000     0.0318186  
H428     H      0.004030000000     0.801480000000     0.535310000000     0.0537072  
H429     H      0.961400000000     0.788360000000     0.530250000000     0.0540118  
H430     H      0.924690000000     0.774000000000     0.559570000000     0.0308946  
H431     H      0.953230000000     0.837340000000     0.615660000000     0.0317167  
H432     H      0.990340000000     0.852340000000     0.586650000000     0.0538179  
H433     H      0.141370000000     0.991710000000     0.441590000000     0.053943   
H434     H      0.118480000000     0.954340000000     0.413500000000     0.0321283  
H435     H      0.142470000000     0.922450000000     0.483380000000     0.0306821  
H436     H      0.165340000000     0.959310000000     0.512090000000     0.0540505  
H437     H      0.137480000000     0.006340000000     0.496550000000     0.0540169  
H438     H      0.153880000000     0.038620000000     0.535590000000     0.0304743  
H439     H      0.214330000000     0.032170000000     0.547790000000     0.0316708  
H440     H      0.198470000000     0.999780000000     0.508490000000     0.053875   
H441     H      0.325460000000     0.861150000000     0.176320000000     0.0537948  
H442     H      0.293590000000     0.844830000000     0.216540000000     0.0315369  
H443     H      0.282990000000     0.776640000000     0.199330000000     0.0306451  
H444     H      0.314700000000     0.792280000000     0.159330000000     0.0539034  
H445     H      0.365060000000     0.866550000000     0.178200000000     0.0540654  
H446     H      0.401480000000     0.879800000000     0.148750000000     0.0308371  
H447     H      0.366770000000     0.825720000000     0.076210000000     0.0317514  
H448     H      0.329790000000     0.811990000000     0.105080000000     0.0537839  
H449     H      0.153800000000     0.691750000000     0.203440000000     0.0540017  
H450     H      0.174940000000     0.727980000000     0.234340000000     0.0304718  
H451     H      0.216320000000     0.703540000000     0.281520000000     0.0312768  
H452     H      0.195330000000     0.666890000000     0.251220000000     0.0536328  
H453     H      0.196080000000     0.658120000000     0.191680000000     0.0541317  
H454     H      0.180750000000     0.627850000000     0.149600000000     0.0307246  
H455     H      0.112610000000     0.618600000000     0.161770000000     0.031851   
H456     H      0.127420000000     0.648940000000     0.204430000000     0.0536846  
H457     H      0.346260000000     0.839740000000     0.383270000000     0.054171   
H458     H      0.317840000000     0.828590000000     0.338620000000     0.0308366  
H459     H      0.267170000000     0.771550000000     0.397170000000     0.0315034  
H460     H      0.295200000000     0.782530000000     0.442700000000     0.0540847  
H461     H      0.315130000000     0.818900000000     0.481190000000     0.0541228  
H462     H      0.343450000000     0.835130000000     0.526210000000     0.0307638  
H463     H      0.396710000000     0.839390000000     0.461480000000     0.0314771  
H464     H      0.368800000000     0.823500000000     0.415620000000     0.0540687  
H465     H      0.172520000000     0.835480000000     0.293030000000     0.0533412  
H466     H      0.198640000000     0.822170000000     0.274690000000     0.0315847  
H467     H      0.203480000000     0.802360000000     0.374600000000     0.0304025  
H468     H      0.178280000000     0.816380000000     0.394190000000     0.0532284  
H469     H      0.139260000000     0.807640000000     0.393910000000     0.0534486  
H470     H      0.113410000000     0.821070000000     0.412910000000     0.0320819  
H471     H      0.142960000000     0.876680000000     0.341860000000     0.0304085  
H472     H      0.169810000000     0.864440000000     0.323130000000     0.0532668  
H473     H      0.668850000000     0.532590000000     0.361520000000     0.0538742  
H474     H      0.700780000000     0.548330000000     0.321320000000     0.0315356  
H475     H      0.702840000000     0.485100000000     0.325450000000     0.0304982  
H476     H      0.671140000000     0.468920000000     0.365500000000     0.0540619  
H477     H      0.627150000000     0.500340000000     0.357220000000     0.0541886  
H478     H      0.590460000000     0.477730000000     0.386610000000     0.0306965  
H479     H      0.621710000000     0.450420000000     0.452050000000     0.0319966  
H480     H      0.658830000000     0.472880000000     0.423080000000     0.0540036  
H481     H      0.799600000000     0.471260000000     0.277930000000     0.0538581  
H482     H      0.777950000000     0.486550000000     0.248880000000     0.0318929  
H483     H      0.815260000000     0.550590000000     0.303020000000     0.0308574  
H484     H      0.837170000000     0.535940000000     0.332340000000     0.0541919  
H485     H      0.865770000000     0.521810000000     0.327100000000     0.0537776  
H486     H      0.881630000000     0.506340000000     0.367990000000     0.0317445  
H487     H      0.814550000000     0.445010000000     0.378740000000     0.0306237  
H488     H      0.798240000000     0.459800000000     0.338090000000     0.0542403  
H489     H      0.995490000000     0.866480000000     0.014150000000     0.0535623  
H490     H      0.964780000000     0.849440000000     0.055450000000     0.0308182  
H491     H      0.950310000000     0.781070000000     0.028820000000     0.0316753  
H492     H      0.980910000000     0.797600000000     0.986590000000     0.0532347  
H493     H      0.004480000000     0.870810000000     0.954950000000     0.0538583  
H494     H      0.041060000000     0.891750000000     0.924540000000     0.029584   
H495     H      0.059640000000     0.841710000000     0.955530000000     0.0302741  
H496     H      0.023520000000     0.820610000000     0.986720000000     0.0542932  
H497     H      0.851160000000     0.849170000000     0.089130000000     0.0539658  
H498     H      0.874100000000     0.835130000000     0.117610000000     0.0318036  
H499     H      0.847830000000     0.776960000000     0.050950000000     0.030827   
H500     H      0.824760000000     0.790420000000     0.022060000000     0.0541794  
H501     H      0.854760000000     0.865920000000     0.032010000000     0.0539896  
H502     H      0.838120000000     0.880980000000     0.992330000000     0.0304357  
H503     H      0.775730000000     0.814300000000     0.987040000000     0.0314251  
H504     H      0.791930000000     0.798560000000     0.026870000000     0.0539015  
H505     H      0.996570000000     0.804770000000     0.234460000000     0.0536916  
H506     H      0.968690000000     0.790630000000     0.189090000000     0.0309966  
H507     H      0.945100000000     0.837380000000     0.217190000000     0.0314087  
H508     H      0.973000000000     0.852010000000     0.263260000000     0.0536667  
H509     H      0.016880000000     0.874380000000     0.273550000000     0.0541756  
H510     H      0.045030000000     0.886810000000     0.319200000000     0.0315332  
H511     H      0.022940000000     0.815650000000     0.341290000000     0.0310025  
H512     H      0.994800000000     0.802720000000     0.296260000000     0.0532887  
H513     H      0.819790000000     0.660790000000     0.238870000000     0.0535071  
H514     H      0.793880000000     0.621180000000     0.257510000000     0.0321356  
H515     H      0.795370000000     0.595270000000     0.160350000000     0.0302181  
H516     H      0.820360000000     0.634670000000     0.140270000000     0.0533196  
H517     H      0.858080000000     0.667220000000     0.142080000000     0.0534082  
H518     H      0.882630000000     0.706860000000     0.122420000000     0.0320812  
H519     H      0.847370000000     0.730320000000     0.186970000000     0.0305335  
H520     H      0.821740000000     0.690820000000     0.206050000000     0.0534068  
H521     H      0.651840000000     0.459220000000     0.832090000000     0.053961   
H522     H      0.619960000000     0.444180000000     0.871810000000     0.0304366  
H523     H      0.625520000000     0.511040000000     0.877860000000     0.0313259  
H524     H      0.657630000000     0.526770000000     0.837970000000     0.0538679  
H525     H      0.698560000000     0.534700000000     0.842440000000     0.0541635  
H526     H      0.735150000000     0.548160000000     0.813290000000     0.0308617  
H527     H      0.702340000000     0.490130000000     0.746430000000     0.03187    
H528     H      0.665260000000     0.476090000000     0.775140000000     0.0539083  
H529     H      0.526970000000     0.324430000000     0.862090000000     0.0542482  
H530     H      0.511410000000     0.293460000000     0.820940000000     0.0306033  
H531     H      0.443750000000     0.285760000000     0.830880000000     0.0318877  
H532     H      0.458850000000     0.316940000000     0.872270000000     0.0539     
H533     H      0.486960000000     0.360110000000     0.867400000000     0.0541856  
H534     H      0.508570000000     0.397030000000     0.896520000000     0.0309181  
H535     H      0.546360000000     0.371450000000     0.951070000000     0.0320574  
H536     H      0.525020000000     0.334160000000     0.922240000000     0.0539689  
H537     H      0.638890000000     0.450520000000     0.094610000000     0.0541225  
H538     H      0.611000000000     0.438040000000     0.048600000000     0.0316333  
H539     H      0.636370000000     0.509230000000     0.022110000000     0.0309916  
H540     H      0.664130000000     0.522190000000     0.067720000000     0.0541195  
H541     H      0.683780000000     0.472570000000     0.103880000000     0.0540769  
H542     H      0.711740000000     0.487570000000     0.149890000000     0.0314488  
H543     H      0.688520000000     0.534880000000     0.176390000000     0.0310453  
H544     H      0.660730000000     0.520520000000     0.130800000000     0.0541035  
H545     H      0.327590000000     0.519800000000     0.253900000000     0.0537991  
H546     H      0.291230000000     0.505520000000     0.284520000000     0.0319956  
H547     H      0.259160000000     0.443740000000     0.224690000000     0.0304582  
H548     H      0.295150000000     0.457450000000     0.193610000000     0.0541525  
H549     H      0.337370000000     0.468630000000     0.195920000000     0.0537801  
H550     H      0.368200000000     0.484220000000     0.153920000000     0.0317689  
H551     H      0.368280000000     0.548590000000     0.153300000000     0.0308674  
H552     H      0.337720000000     0.533710000000     0.195050000000     0.0540295  
H553     H      0.514380000000     0.648370000000     0.195730000000     0.0530331  
H554     H      0.531880000000     0.680000000000     0.235220000000     0.0326025  
H555     H      0.512990000000     0.720690000000     0.174440000000     0.0299767  
H556     H      0.496840000000     0.690130000000     0.132690000000     0.0527675  
H557     H      0.464520000000     0.654940000000     0.122790000000     0.0531408  
H558     H      0.440500000000     0.619450000000     0.091960000000     0.0319538  
H559     H      0.486030000000     0.594060000000     0.118110000000     0.0302385  
H560     H      0.511690000000     0.630100000000     0.146920000000     0.0527722  
H561     H      0.322830000000     0.471270000000     0.959250000000     0.0541475  
H562     H      0.350950000000     0.484180000000     0.004340000000     0.0307572  
H563     H      0.377410000000     0.555350000000     0.976580000000     0.0307679  
H564     H      0.349020000000     0.542890000000     0.931090000000     0.0541448  
H565     H      0.302960000000     0.520200000000     0.923270000000     0.0542385  
H566     H      0.274680000000     0.504750000000     0.877560000000     0.0311683  
H567     H      0.299110000000     0.458580000000     0.850110000000     0.0309791  
H568     H      0.327100000000     0.473300000000     0.895410000000     0.0542514  
H569     H      0.502010000000     0.500610000000     0.952910000000     0.0533597  
H570     H      0.528780000000     0.487780000000     0.936210000000     0.031977   
H571     H      0.530590000000     0.466290000000     0.036230000000     0.0301729  
H572     H      0.504930000000     0.480080000000     0.054360000000     0.0533361  
H573     H      0.466880000000     0.472790000000     0.053420000000     0.053446   
H574     H      0.441730000000     0.487150000000     0.071860000000     0.0323717  
H575     H      0.471900000000     0.541910000000     0.999560000000     0.0304112  
H576     H      0.498300000000     0.528940000000     0.981640000000     0.0533253  
In1      In     0.413290000000     0.539750000000     0.069520000000     2.42487    
In2      In     0.575000000000     0.453000000000     0.955860000000     2.42533    
In3      In     0.909250000000     0.788040000000     0.122160000000     2.44103    
In4      In     0.749300000000     0.539130000000     0.242130000000     2.42837    
In5      In     0.242690000000     0.784460000000     0.291110000000     2.41231    
In6      In     0.082330000000     0.871670000000     0.410240000000     2.43552    
In7      In     0.579030000000     0.122140000000     0.459840000000     2.43331    
In8      In     0.419760000000     0.871050000000     0.571180000000     2.40919    
In9      In     0.910460000000     0.118750000000     0.621090000000     2.43113    
In10     In     0.752730000000     0.207310000000     0.746860000000     2.41771    
In11     In     0.238470000000     0.453920000000     0.783870000000     2.43538    
In12     In     0.084610000000     0.204970000000     0.907730000000     2.42669    
In13     In     0.871130000000     0.785610000000     0.622280000000     2.42837    
In14     In     0.785110000000     0.537450000000     0.741040000000     2.44111    
In15     In     0.207140000000     0.119160000000     0.120900000000     2.42849    
In16     In     0.454750000000     0.206000000000     0.243780000000     2.42728    
In17     In     0.872880000000     0.452480000000     0.453570000000     2.43735    
In18     In     0.122410000000     0.545430000000     0.572670000000     2.39764    
In19     In     0.120820000000     0.206480000000     0.407380000000     2.42512    
In20     In     0.209130000000     0.456450000000     0.294580000000     2.42499    
In21     In     0.449900000000     0.869740000000     0.072630000000     2.43851    
In22     In     0.542930000000     0.120080000000     0.958220000000     2.427      
In23     In     0.784120000000     0.872110000000     0.908510000000     2.42594    
In24     In     0.535500000000     0.781210000000     0.787070000000     2.42742    
In25     In     0.123580000000     0.576640000000     0.073450000000     2.43486    
In26     In     0.874200000000     0.416850000000     0.954890000000     2.39867    
In27     In     0.205380000000     0.082770000000     0.622820000000     2.42026    
In28     In     0.454130000000     0.242150000000     0.744720000000     2.43296    
In29     In     0.213360000000     0.755090000000     0.792130000000     2.43867    
In30     In     0.119660000000     0.911000000000     0.905860000000     2.39701    
In31     In     0.539210000000     0.416030000000     0.457380000000     2.43213    
In32     In     0.448560000000     0.574900000000     0.569560000000     2.39841    
In33     In     0.872770000000     0.082930000000     0.120050000000     2.43174    
In34     In     0.785520000000     0.243650000000     0.237220000000     2.41711    
In35     In     0.784560000000     0.907980000000     0.406020000000     2.43519    
In36     In     0.535780000000     0.745610000000     0.286920000000     2.40009    
N1       N      0.718470000000     0.862620000000     0.375010000000    -0.193779   
N2       N      0.602930000000     0.784690000000     0.319670000000    -0.195545   
N3       N      0.852130000000     0.036370000000     0.196740000000    -0.194344   
N4       N      0.810700000000     0.954090000000     0.328800000000    -0.194111   
N5       N      0.850910000000     0.127100000000     0.150750000000    -0.193671   
N6       N      0.811800000000     0.203390000000     0.205090000000    -0.194126   
N7       N      0.457260000000     0.620590000000     0.495450000000    -0.192915   
N8       N      0.497560000000     0.699400000000     0.360130000000    -0.192929   
N9       N      0.516860000000     0.459930000000     0.487350000000    -0.193734   
N10      N      0.477240000000     0.536260000000     0.539130000000    -0.195531   
N11      N      0.190700000000     0.798620000000     0.822640000000    -0.193545   
N12      N      0.149830000000     0.873760000000     0.875290000000    -0.194528   
N13      N      0.479710000000     0.288470000000     0.667630000000    -0.194303   
N14      N      0.519460000000     0.370050000000     0.534700000000    -0.194188   
N15      N      0.171700000000     0.035280000000     0.696640000000    -0.193432   
N16      N      0.126570000000     0.954600000000     0.829730000000    -0.192826   
N17      N      0.272070000000     0.122710000000     0.656350000000    -0.194367   
N18      N      0.387850000000     0.197820000000     0.713360000000    -0.193669   
N19      N      0.800040000000     0.290810000000     0.162820000000    -0.193586   
N20      N      0.837320000000     0.371600000000     0.029740000000    -0.193128   
N21      N      0.192530000000     0.708960000000     0.869230000000    -0.194003   
N22      N      0.150260000000     0.624440000000     0.998370000000    -0.194151   
N23      N      0.941870000000     0.455090000000     0.985830000000    -0.194611   
N24      N      0.057700000000     0.532370000000     0.040550000000    -0.193462   
N25      N      0.517740000000     0.716650000000     0.753380000000    -0.193851   
N26      N      0.479310000000     0.618590000000     0.648190000000    -0.193568   
N27      N      0.804220000000     0.937670000000     0.940080000000    -0.19333    
N28      N      0.849980000000     0.037200000000     0.042340000000    -0.19419    
N29      N      0.601560000000     0.806450000000     0.821120000000    -0.192844   
N30      N      0.717570000000     0.848410000000     0.877400000000    -0.193899   
N31      N      0.473650000000     0.197690000000     0.781650000000    -0.193457   
N32      N      0.519050000000     0.142890000000     0.881970000000    -0.194523   
N33      N      0.470280000000     0.843030000000     0.148050000000    -0.194194   
N34      N      0.512100000000     0.787920000000     0.254730000000    -0.194795   
N35      N      0.468770000000     0.844010000000     0.994000000000    -0.193967   
N36      N      0.508390000000     0.801780000000     0.862060000000    -0.194705   
N37      N      0.518910000000     0.053350000000     0.988500000000    -0.193793   
N38      N      0.475210000000     0.936690000000     0.042560000000    -0.193398   
N39      N      0.142560000000     0.531810000000     0.110510000000    -0.193507   
N40      N      0.186720000000     0.478290000000     0.215490000000    -0.193735   
N41      N      0.187390000000     0.129120000000     0.588710000000    -0.193796   
N42      N      0.143950000000     0.184020000000     0.484990000000    -0.19444    
N43      N      0.144170000000     0.273290000000     0.378090000000    -0.193741   
N44      N      0.184100000000     0.389920000000     0.327010000000    -0.193986   
N45      N      0.191690000000     0.708270000000     0.715870000000    -0.193919   
N46      N      0.147450000000     0.611560000000     0.607270000000    -0.196319   
N47      N      0.193850000000     0.488110000000     0.369540000000    -0.194554   
N48      N      0.159030000000     0.537560000000     0.497410000000    -0.192719   
N49      N      0.855360000000     0.388990000000     0.415970000000    -0.193444   
N50      N      0.810770000000     0.288400000000     0.315880000000    -0.193838   
N51      N      0.939140000000     0.475380000000     0.485270000000    -0.193688   
N52      N      0.055180000000     0.516580000000     0.540550000000    -0.193936   
N53      N      0.473690000000     0.271010000000     0.276700000000    -0.193338   
N54      N      0.517050000000     0.369890000000     0.380140000000    -0.194017   
N55      N      0.482430000000     0.186510000000     0.168400000000    -0.193411   
N56      N      0.523060000000     0.146580000000     0.034740000000    -0.19346    
N57      N      0.191180000000     0.055710000000     0.084560000000    -0.193483   
N58      N      0.153390000000     0.956730000000     0.981250000000    -0.193809   
N59      N      0.180540000000     0.138670000000     0.197920000000    -0.194428   
N60      N      0.140660000000     0.179680000000     0.331190000000    -0.193518   
N61      N      0.273020000000     0.142880000000     0.154640000000    -0.193095   
N62      N      0.388480000000     0.182520000000     0.211560000000    -0.193761   
N63      N      0.806050000000     0.512370000000     0.817900000000    -0.194085   
N64      N      0.850020000000     0.459140000000     0.924140000000    -0.195588   
N65      N      0.805260000000     0.512020000000     0.663530000000    -0.194019   
N66      N      0.846390000000     0.471970000000     0.530590000000    -0.194254   
N67      N      0.847180000000     0.807500000000     0.545000000000    -0.194548   
N68      N      0.802980000000     0.862920000000     0.443810000000    -0.193247   
N69      N      0.851410000000     0.812340000000     0.698630000000    -0.193655   
N70      N      0.811260000000     0.852380000000     0.832700000000    -0.193407   
N71      N      0.848300000000     0.719360000000     0.653740000000    -0.193788   
N72      N      0.808610000000     0.603740000000     0.709320000000    -0.19366    
N73      N      0.038840000000     0.183420000000     0.985400000000    -0.194493   
N74      N      0.937390000000     0.128160000000     0.084190000000    -0.193456   
N75      N      0.130510000000     0.185750000000     0.939670000000    -0.193441   
N76      N      0.185030000000     0.141230000000     0.041630000000    -0.194004   
N77      N      0.283150000000     0.478670000000     0.704990000000    -0.194219   
N78      N      0.381550000000     0.532560000000     0.599960000000    -0.194937   
N79      N      0.190100000000     0.468920000000     0.749110000000    -0.193876   
N80      N      0.130950000000     0.508670000000     0.646620000000    -0.194483   
N81      N      0.127180000000     0.271410000000     0.875560000000    -0.193759   
N82      N      0.198480000000     0.387520000000     0.817330000000    -0.193104   
N83      N      0.709610000000     0.183810000000     0.827660000000    -0.194416   
N84      N      0.608000000000     0.138640000000     0.925550000000    -0.193453   
N85      N      0.800630000000     0.273140000000     0.775710000000    -0.193616   
N86      N      0.862070000000     0.372890000000     0.877150000000    -0.193893   
N87      N      0.956400000000     0.141740000000     0.543520000000    -0.194041   
N88      N      0.055580000000     0.186860000000     0.440380000000    -0.193601   
N89      N      0.808080000000     0.954960000000     0.482180000000    -0.194017   
N90      N      0.864380000000     0.054860000000     0.583870000000    -0.193359   
N91      N      0.037020000000     0.177550000000     0.832500000000    -0.193448   
N92      N      0.956260000000     0.137930000000     0.698620000000    -0.194219   
N93      N      0.867350000000     0.141370000000     0.653810000000    -0.19366    
N94      N      0.793420000000     0.182120000000     0.713020000000    -0.193327   
N95      N      0.277090000000     0.800640000000     0.753820000000    -0.193753   
N96      N      0.376900000000     0.854190000000     0.651660000000    -0.193696   
N97      N      0.464140000000     0.848990000000     0.599960000000    -0.194819   
N98      N      0.514930000000     0.802500000000     0.705280000000    -0.193886   
N99      N      0.720590000000     0.198210000000     0.272070000000    -0.193952   
N100     N      0.624990000000     0.145680000000     0.382310000000    -0.194319   
N101     N      0.532860000000     0.139470000000     0.422960000000    -0.193746   
N102     N      0.476470000000     0.182580000000     0.321900000000    -0.194402   
N103     N      0.704530000000     0.188060000000     0.672610000000    -0.194085   
N104     N      0.624190000000     0.147900000000     0.538250000000    -0.194072   
N105     N      0.535180000000     0.055520000000     0.489980000000    -0.193576   
N106     N      0.459230000000     0.938740000000     0.541590000000    -0.194029   
N107     N      0.035930000000     0.849040000000     0.487160000000    -0.193847   
N108     N      0.936210000000     0.804890000000     0.589090000000    -0.193526   
N109     N      0.128480000000     0.935690000000     0.446860000000    -0.193403   
N110     N      0.185000000000     0.037320000000     0.545000000000    -0.194188   
N111     N      0.286430000000     0.809710000000     0.211340000000    -0.193574   
N112     N      0.386780000000     0.853400000000     0.110810000000    -0.193572   
N113     N      0.197560000000     0.718570000000     0.259340000000    -0.194252   
N114     N      0.145690000000     0.621360000000     0.152320000000    -0.194001   
N115     N      0.290440000000     0.799410000000     0.364860000000    -0.193724   
N116     N      0.372130000000     0.838640000000     0.496920000000    -0.193824   
N117     N      0.202780000000     0.811180000000     0.323260000000    -0.194161   
N118     N      0.126320000000     0.849780000000     0.378730000000    -0.193645   
N119     N      0.703730000000     0.517670000000     0.320080000000    -0.194453   
N120     N      0.603370000000     0.462090000000     0.420910000000    -0.193612   
N121     N      0.794670000000     0.519390000000     0.274500000000    -0.193422   
N122     N      0.849130000000     0.474800000000     0.376650000000    -0.194092   
N123     N      0.955590000000     0.814080000000     0.045380000000    -0.193926   
N124     N      0.053170000000     0.868550000000     0.938620000000    -0.19614    
N125     N      0.862960000000     0.805360000000     0.085850000000    -0.193551   
N126     N      0.805960000000     0.848580000000     0.986380000000    -0.194535   
N127     N      0.954840000000     0.812920000000     0.200000000000    -0.193937   
N128     N      0.036070000000     0.852150000000     0.333330000000    -0.194132   
N129     N      0.792790000000     0.605440000000     0.210290000000    -0.193707   
N130     N      0.866800000000     0.721390000000     0.153350000000    -0.193598   
N131     N      0.620820000000     0.476670000000     0.878140000000    -0.194888   
N132     N      0.721440000000     0.519840000000     0.778260000000    -0.193461   
N133     N      0.476590000000     0.287720000000     0.822580000000    -0.194169   
N134     N      0.529410000000     0.387040000000     0.925160000000    -0.193213   
N135     N      0.621620000000     0.472730000000     0.032240000000    -0.193472   
N136     N      0.702210000000     0.512360000000     0.166240000000    -0.193546   
N137     N      0.272500000000     0.473910000000     0.256230000000    -0.193585   
N138     N      0.370070000000     0.517300000000     0.150210000000    -0.194043   
N139     N      0.523050000000     0.702260000000     0.208100000000    -0.193541   
N140     N      0.461200000000     0.604020000000     0.103690000000    -0.193522   
N141     N      0.366290000000     0.520680000000     0.993510000000    -0.194903   
N142     N      0.284810000000     0.480520000000     0.860740000000    -0.194237   
N143     N      0.531520000000     0.476070000000     0.984980000000    -0.194027   
N144     N      0.455050000000     0.515540000000     0.037080000000    -0.192947   
O1       O      0.447410000000     0.564860000000     0.095380000000    -0.508217   
O2       O      0.427840000000     0.579000000000     0.074110000000    -0.4907     
O3       O      0.427560000000     0.515090000000     0.072950000000    -0.492776   
O4       O      0.391410000000     0.544060000000     0.109350000000    -0.511727   
O5       O      0.397900000000     0.548460000000     0.023900000000    -0.494002   
O6       O      0.394050000000     0.513570000000     0.111800000000    -0.487521   
O7       O      0.440000000000     0.540130000000     0.033550000000    -0.508327   
O8       O      0.382670000000     0.513110000000     0.038920000000    -0.519383   
O9       O      0.605110000000     0.480170000000     0.986770000000    -0.511937   
O10      O      0.590700000000     0.444690000000     0.001160000000    -0.489789   
O11      O      0.554570000000     0.471520000000     0.945960000000    -0.494796   
O12      O      0.597220000000     0.480750000000     0.916820000000    -0.492369   
O13      O      0.560150000000     0.413570000000     0.957880000000    -0.489378   
O14      O      0.596650000000     0.448550000000     0.915740000000    -0.51471    
O15      O      0.552500000000     0.457590000000     0.994540000000    -0.511781   
O16      O      0.542810000000     0.426460000000     0.927600000000    -0.509283   
O17      O      0.879830000000     0.782410000000     0.087630000000    -0.514924   
O18      O      0.891440000000     0.809810000000     0.123390000000    -0.494227   
O19      O      0.896030000000     0.749020000000     0.119720000000    -0.494803   
O20      O      0.927540000000     0.783360000000     0.076710000000    -0.491018   
O21      O      0.924880000000     0.811440000000     0.168380000000    -0.492332   
O22      O      0.935950000000     0.817700000000     0.090270000000    -0.516817   
O23      O      0.880320000000     0.760920000000     0.154990000000    -0.513503   
O24      O      0.938030000000     0.789420000000     0.154080000000    -0.518072   
O25      O      0.719410000000     0.536510000000     0.211490000000    -0.513681   
O26      O      0.732780000000     0.514660000000     0.197220000000    -0.490446   
O27      O      0.769380000000     0.578510000000     0.250070000000    -0.494268   
O28      O      0.728150000000     0.545440000000     0.281820000000    -0.491318   
O29      O      0.764120000000     0.514660000000     0.241130000000    -0.491207   
O30      O      0.726840000000     0.512850000000     0.281770000000    -0.514451   
O31      O      0.772530000000     0.565490000000     0.202920000000    -0.511523   
O32      O      0.781180000000     0.545180000000     0.271270000000    -0.510751   
O33      O      0.278470000000     0.806700000000     0.314580000000    -0.507813   
O34      O      0.254060000000     0.776280000000     0.340950000000    -0.48787    
O35      O      0.223250000000     0.804290000000     0.282500000000    -0.493965   
O36      O      0.265090000000     0.813570000000     0.254020000000    -0.487152   
O37      O      0.229360000000     0.745290000000     0.290150000000    -0.494229   
O38      O      0.261530000000     0.780210000000     0.246750000000    -0.508023   
O39      O      0.223470000000     0.792290000000     0.331580000000    -0.509889   
O40      O      0.209300000000     0.757480000000     0.265300000000    -0.509607   
O41      O      0.111390000000     0.895660000000     0.445390000000    -0.513449   
O42      O      0.100400000000     0.911410000000     0.408850000000    -0.492524   
O43      O      0.097500000000     0.847650000000     0.413550000000    -0.495342   
O44      O      0.061930000000     0.845770000000     0.452220000000    -0.490454   
O45      O      0.065920000000     0.880190000000     0.365920000000    -0.49245    
O46      O      0.057850000000     0.875280000000     0.446010000000    -0.514497   
O47      O      0.110620000000     0.873800000000     0.375800000000    -0.512716   
O48      O      0.053640000000     0.844610000000     0.377310000000    -0.517498   
O49      O      0.549500000000     0.116350000000     0.425370000000    -0.513502   
O50      O      0.561380000000     0.144100000000     0.460550000000    -0.492711   
O51      O      0.564160000000     0.082960000000     0.455940000000    -0.494562   
O52      O      0.604560000000     0.150590000000     0.424970000000    -0.514931   
O53      O      0.595540000000     0.147140000000     0.504330000000    -0.492498   
O54      O      0.598540000000     0.116370000000     0.417060000000    -0.490835   
O55      O      0.550530000000     0.095350000000     0.493740000000    -0.511006   
O56      O      0.606730000000     0.122960000000     0.493850000000    -0.516761   
O57      O      0.409140000000     0.854000000000     0.519420000000    -0.487845   
O58      O      0.383230000000     0.855010000000     0.549290000000    -0.50647    
O59      O      0.439600000000     0.910300000000     0.581580000000    -0.492781   
O60      O      0.397940000000     0.878500000000     0.607890000000    -0.488448   
O61      O      0.431850000000     0.844320000000     0.571280000000    -0.497135   
O62      O      0.401170000000     0.848670000000     0.616470000000    -0.506418   
O63      O      0.438250000000     0.899130000000     0.531520000000    -0.507147   
O64      O      0.453460000000     0.876910000000     0.594960000000    -0.510282   
O65      O      0.939280000000     0.145640000000     0.654050000000    -0.517185   
O66      O      0.926490000000     0.110020000000     0.665770000000    -0.491758   
O67      O      0.895840000000     0.143240000000     0.618590000000    -0.494532   
O68      O      0.930360000000     0.144640000000     0.578840000000    -0.490263   
O69      O      0.893290000000     0.079070000000     0.620920000000    -0.492762   
O70      O      0.935040000000     0.115510000000     0.584980000000    -0.514056   
O71      O      0.882190000000     0.116580000000     0.655620000000    -0.51179    
O72      O      0.880390000000     0.094730000000     0.587220000000    -0.511808   
O73      O      0.788100000000     0.234200000000     0.767940000000    -0.50742    
O74      O      0.766110000000     0.246460000000     0.749970000000    -0.489491   
O75      O      0.772390000000     0.187740000000     0.754330000000    -0.491757   
O76      O      0.732390000000     0.179890000000     0.787330000000    -0.489853   
O77      O      0.737280000000     0.215700000000     0.701180000000    -0.490822   
O78      O      0.732710000000     0.211940000000     0.789340000000    -0.511697   
O79      O      0.773120000000     0.201570000000     0.706040000000    -0.509122   
O80      O      0.720540000000     0.180750000000     0.718780000000    -0.513876   
O81      O      0.205700000000     0.445020000000     0.754610000000    -0.511981   
O82      O      0.221960000000     0.476880000000     0.781930000000    -0.494213   
O83      O      0.226160000000     0.415150000000     0.781940000000    -0.493582   
O84      O      0.255900000000     0.448460000000     0.737880000000    -0.490136   
O85      O      0.253890000000     0.477620000000     0.829940000000    -0.49233    
O86      O      0.263930000000     0.482880000000     0.749880000000    -0.516722   
O87      O      0.211190000000     0.426910000000     0.818710000000    -0.510786   
O88      O      0.268280000000     0.456820000000     0.814940000000    -0.518227   
O89      O      0.054110000000     0.201590000000     0.877880000000    -0.513465   
O90      O      0.068280000000     0.180630000000     0.862590000000    -0.489348   
O91      O      0.104560000000     0.244350000000     0.915700000000    -0.494099   
O92      O      0.063550000000     0.211280000000     0.947490000000    -0.491202   
O93      O      0.116500000000     0.211130000000     0.936980000000    -0.511181   
O94      O      0.062080000000     0.178610000000     0.947300000000    -0.513822   
O95      O      0.107160000000     0.231460000000     0.868160000000    -0.511194   
O96      O      0.099870000000     0.180850000000     0.906340000000    -0.491522   
O97      O      0.843980000000     0.787910000000     0.653670000000    -0.513779   
O98      O      0.879550000000     0.810280000000     0.667000000000    -0.490594   
O99      O      0.851310000000     0.746210000000     0.614410000000    -0.494185   
O100     O      0.843520000000     0.779520000000     0.582850000000    -0.491557   
O101     O      0.910800000000     0.809690000000     0.623210000000    -0.49087    
O102     O      0.875170000000     0.812120000000     0.583110000000    -0.514941   
O103     O      0.868140000000     0.759290000000     0.661220000000    -0.511738   
O104     O      0.896520000000     0.779590000000     0.592140000000    -0.511436   
O105     O      0.761500000000     0.542870000000     0.776100000000    -0.514897   
O106     O      0.745280000000     0.515480000000     0.740310000000    -0.493643   
O107     O      0.810950000000     0.576610000000     0.742720000000    -0.495142   
O108     O      0.808640000000     0.542710000000     0.786100000000    -0.490825   
O109     O      0.776900000000     0.513540000000     0.695390000000    -0.49237    
O110     O      0.782280000000     0.508200000000     0.773400000000    -0.516944   
O111     O      0.782800000000     0.564040000000     0.708090000000    -0.513845   
O112     O      0.812410000000     0.536150000000     0.708750000000    -0.518153   
O113     O      0.215880000000     0.095180000000     0.091960000000    -0.510432   
O114     O      0.183080000000     0.079640000000     0.116950000000    -0.491606   
O115     O      0.246390000000     0.144300000000     0.118970000000    -0.492352   
O116     O      0.213780000000     0.144660000000     0.077870000000    -0.489018   
O117     O      0.183020000000     0.110590000000     0.166660000000    -0.492619   
O118     O      0.179770000000     0.115210000000     0.083400000000    -0.513686   
O119     O      0.233140000000     0.117800000000     0.156350000000    -0.50984    
O120     O      0.204320000000     0.146010000000     0.152220000000    -0.518616   
O121     O      0.458140000000     0.179040000000     0.213600000000    -0.513577   
O122     O      0.479290000000     0.214490000000     0.198850000000    -0.490011   
O123     O      0.415300000000     0.186290000000     0.251520000000    -0.494011   
O124     O      0.448650000000     0.178520000000     0.283400000000    -0.491119   
O125     O      0.478910000000     0.245650000000     0.243070000000    -0.490389   
O126     O      0.481020000000     0.210440000000     0.283630000000    -0.51422    
O127     O      0.428440000000     0.202130000000     0.204180000000    -0.511928   
O128     O      0.448280000000     0.231400000000     0.273070000000    -0.51107    
O129     O      0.878190000000     0.429060000000     0.418000000000    -0.514115   
O130     O      0.851230000000     0.412680000000     0.454420000000    -0.493444   
O131     O      0.912170000000     0.477510000000     0.451230000000    -0.495634   
O132     O      0.878620000000     0.477880000000     0.410950000000    -0.490567   
O133     O      0.847980000000     0.443870000000     0.498210000000    -0.492565   
O134     O      0.844470000000     0.448980000000     0.418470000000    -0.514781   
O135     O      0.899280000000     0.450220000000     0.487250000000    -0.512558   
O136     O      0.871350000000     0.479450000000     0.486330000000    -0.518476   
O137     O      0.133050000000     0.548040000000     0.517780000000    -0.484483   
O138     O      0.151110000000     0.539190000000     0.553150000000    -0.491751   
O139     O      0.082860000000     0.522720000000     0.580550000000    -0.498123   
O140     O      0.120050000000     0.512320000000     0.593230000000    -0.493883   
O141     O      0.151740000000     0.583410000000     0.579620000000    -0.507388   
O142     O      0.128630000000     0.540110000000     0.627200000000    -0.503166   
O143     O      0.095020000000     0.538370000000     0.533060000000    -0.493215   
O144     O      0.117730000000     0.574290000000     0.595400000000    -0.510869   
O145     O      0.095230000000     0.212320000000     0.437380000000    -0.51084    
O146     O      0.081120000000     0.182350000000     0.406120000000    -0.490135   
O147     O      0.140770000000     0.245730000000     0.416380000000    -0.494042   
O148     O      0.147840000000     0.212390000000     0.447720000000    -0.490665   
O149     O      0.112550000000     0.182260000000     0.362150000000    -0.490483   
O150     O      0.116650000000     0.179430000000     0.445640000000    -0.514728   
O151     O      0.124390000000     0.233490000000     0.369100000000    -0.510344   
O152     O      0.148060000000     0.204080000000     0.376240000000    -0.513113   
O153     O      0.184290000000     0.463860000000     0.323870000000    -0.516147   
O154     O      0.219220000000     0.479810000000     0.341230000000    -0.492824   
O155     O      0.182720000000     0.417370000000     0.293180000000    -0.495453   
O156     O      0.182950000000     0.450000000000     0.252820000000    -0.487471   
O157     O      0.248790000000     0.479390000000     0.292910000000    -0.492593   
O158     O      0.213440000000     0.483530000000     0.256240000000    -0.509967   
O159     O      0.210120000000     0.429580000000     0.328870000000    -0.511935   
O160     O      0.232680000000     0.449600000000     0.261150000000    -0.510668   
O161     O      0.426960000000     0.874930000000     0.109340000000    -0.515049   
O162     O      0.409980000000     0.849460000000     0.071190000000    -0.493601   
O163     O      0.476670000000     0.908630000000     0.074890000000    -0.49409    
O164     O      0.473210000000     0.874010000000     0.117540000000    -0.490831   
O165     O      0.440930000000     0.845020000000     0.027770000000    -0.491836   
O166     O      0.446920000000     0.839800000000     0.103470000000    -0.517026   
O167     O      0.448250000000     0.897250000000     0.040920000000    -0.512753   
O168     O      0.476630000000     0.869110000000     0.038210000000    -0.517388   
O169     O      0.515720000000     0.121860000000     0.990180000000    -0.513145   
O170     O      0.551310000000     0.145000000000     0.002660000000    -0.489818   
O171     O      0.522570000000     0.080760000000     0.949720000000    -0.494294   
O172     O      0.515630000000     0.114410000000     0.918590000000    -0.491794   
O173     O      0.582760000000     0.142840000000     0.960930000000    -0.491501   
O174     O      0.546910000000     0.147320000000     0.920270000000    -0.513806   
O175     O      0.539610000000     0.093230000000     0.996530000000    -0.511398   
O176     O      0.568020000000     0.114740000000     0.926220000000    -0.512193   
O177     O      0.787160000000     0.845000000000     0.878100000000    -0.51255    
O178     O      0.808460000000     0.880440000000     0.863400000000    -0.489542   
O179     O      0.744760000000     0.852870000000     0.917170000000    -0.49438    
O180     O      0.778130000000     0.844540000000     0.947920000000    -0.491577   
O181     O      0.778250000000     0.898130000000     0.937270000000    -0.510031   
O182     O      0.810350000000     0.876580000000     0.948470000000    -0.51428    
O183     O      0.757450000000     0.867810000000     0.869250000000    -0.512023   
O184     O      0.808690000000     0.911640000000     0.906960000000    -0.490366   
O185     O      0.543910000000     0.755720000000     0.761660000000    -0.509599   
O186     O      0.510080000000     0.741970000000     0.782890000000    -0.492799   
O187     O      0.574620000000     0.806780000000     0.784930000000    -0.492498   
O188     O      0.508510000000     0.777620000000     0.749220000000    -0.512848   
O189     O      0.512270000000     0.773530000000     0.833580000000    -0.49419    
O190     O      0.543260000000     0.805380000000     0.741900000000    -0.487509   
O191     O      0.561780000000     0.780830000000     0.823100000000    -0.508125   
O192     O      0.531480000000     0.808350000000     0.815760000000    -0.519202   
O193     O      0.117760000000     0.546460000000     0.106460000000    -0.513714   
O194     O      0.147090000000     0.560710000000     0.073770000000    -0.49299    
O195     O      0.084170000000     0.560830000000     0.076190000000    -0.495454   
O196     O      0.116820000000     0.595000000000     0.116870000000    -0.489002   
O197     O      0.147910000000     0.593480000000     0.028350000000    -0.49282    
O198     O      0.151320000000     0.601530000000     0.109560000000    -0.51477    
O199     O      0.097740000000     0.548790000000     0.037810000000    -0.511275   
O200     O      0.125660000000     0.606290000000     0.042870000000    -0.517831   
O201     O      0.859570000000     0.408860000000     0.008210000000    -0.484978   
O202     O      0.849850000000     0.380390000000     0.975190000000    -0.495913   
O203     O      0.913710000000     0.436000000000     0.945210000000    -0.498805   
O204     O      0.877280000000     0.387840000000     0.929230000000    -0.489406   
O205     O      0.845340000000     0.425930000000     0.949890000000    -0.503551   
O206     O      0.863130000000     0.404960000000     0.901180000000    -0.502907   
O207     O      0.902160000000     0.434330000000     0.995030000000    -0.502088   
O208     O      0.879470000000     0.451170000000     0.934260000000    -0.508476   
O209     O      0.194630000000     0.048660000000     0.649430000000    -0.509727   
O210     O      0.182670000000     0.070270000000     0.669980000000    -0.488312   
O211     O      0.244910000000     0.101760000000     0.615390000000    -0.495269   
O212     O      0.211590000000     0.060390000000     0.585430000000    -0.489778   
O213     O      0.181460000000     0.098230000000     0.622170000000    -0.492614   
O214     O      0.180580000000     0.062030000000     0.580690000000    -0.510759   
O215     O      0.232100000000     0.102860000000     0.663580000000    -0.511864   
O216     O      0.212670000000     0.115060000000     0.593510000000    -0.51028    
O217     O      0.448950000000     0.212540000000     0.778540000000    -0.512871   
O218     O      0.477540000000     0.226130000000     0.744530000000    -0.492882   
O219     O      0.414790000000     0.226840000000     0.747860000000    -0.494963   
O220     O      0.447640000000     0.261070000000     0.787570000000    -0.489719   
O221     O      0.478180000000     0.258470000000     0.699160000000    -0.492656   
O222     O      0.482050000000     0.267320000000     0.780470000000    -0.514431   
O223     O      0.427770000000     0.213360000000     0.710720000000    -0.511539   
O224     O      0.455660000000     0.271090000000     0.712900000000    -0.517384   
O225     O      0.237050000000     0.783280000000     0.755800000000    -0.51594    
O226     O      0.253260000000     0.773600000000     0.793360000000    -0.493302   
O227     O      0.188390000000     0.769110000000     0.789280000000    -0.495579   
O228     O      0.189460000000     0.736270000000     0.747530000000    -0.489712   
O229     O      0.221200000000     0.738760000000     0.837240000000    -0.492637   
O230     O      0.215700000000     0.728210000000     0.760150000000    -0.515644   
O231     O      0.215750000000     0.784090000000     0.825250000000    -0.51235    
O232     O      0.185780000000     0.726870000000     0.824930000000    -0.517905   
O233     O      0.113720000000     0.917870000000     0.851680000000    -0.484043   
O234     O      0.129110000000     0.946620000000     0.885090000000    -0.492925   
O235     O      0.141780000000     0.893890000000     0.915250000000    -0.499097   
O236     O      0.152000000000     0.941970000000     0.928500000000    -0.48974    
O237     O      0.081610000000     0.901700000000     0.912150000000    -0.506059   
O238     O      0.122590000000     0.922790000000     0.960100000000    -0.502032   
O239     O      0.129030000000     0.892430000000     0.866270000000    -0.498713   
O240     O      0.090660000000     0.876790000000     0.927580000000    -0.509839   
O241     O      0.563420000000     0.445690000000     0.423180000000    -0.5126     
O242     O      0.578970000000     0.433540000000     0.458280000000    -0.492261   
O243     O      0.515220000000     0.431150000000     0.453020000000    -0.495083   
O244     O      0.513480000000     0.395630000000     0.415200000000    -0.489902   
O245     O      0.547590000000     0.400110000000     0.502490000000    -0.49255    
O246     O      0.543050000000     0.391660000000     0.421630000000    -0.513858   
O247     O      0.540770000000     0.444150000000     0.491630000000    -0.511907   
O248     O      0.512030000000     0.387150000000     0.490000000000    -0.516963   
O249     O      0.439260000000     0.583460000000     0.518240000000    -0.485097   
O250     O      0.464610000000     0.611360000000     0.547750000000    -0.495936   
O251     O      0.468560000000     0.555710000000     0.579290000000    -0.502509   
O252     O      0.480300000000     0.603980000000     0.596250000000    -0.485852   
O253     O      0.410600000000     0.565950000000     0.574710000000    -0.499809   
O254     O      0.448390000000     0.586580000000     0.623230000000    -0.500095   
O255     O      0.458440000000     0.556910000000     0.529500000000    -0.507099   
O256     O      0.419140000000     0.540610000000     0.590190000000    -0.507501   
O257     O      0.897510000000     0.112500000000     0.086100000000    -0.512667   
O258     O      0.912430000000     0.099660000000     0.121180000000    -0.492685   
O259     O      0.848710000000     0.098040000000     0.116520000000    -0.494767   
O260     O      0.847200000000     0.063420000000     0.077350000000    -0.489946   
O261     O      0.880630000000     0.066730000000     0.165360000000    -0.492537   
O262     O      0.876020000000     0.058290000000     0.084150000000    -0.514058   
O263     O      0.875040000000     0.111520000000     0.154030000000    -0.511844   
O264     O      0.845240000000     0.053780000000     0.151920000000    -0.5171     
O265     O      0.808840000000     0.278190000000     0.211300000000    -0.510295   
O266     O      0.776010000000     0.255410000000     0.188810000000    -0.489257   
O267     O      0.805830000000     0.224730000000     0.245430000000    -0.49449    
O268     O      0.814450000000     0.266090000000     0.274570000000    -0.487704   
O269     O      0.746200000000     0.229550000000     0.239510000000    -0.492422   
O270     O      0.781470000000     0.263700000000     0.280070000000    -0.509712   
O271     O      0.792140000000     0.223370000000     0.196980000000    -0.510596   
O272     O      0.759560000000     0.210580000000     0.264580000000    -0.509694   
O273     O      0.779160000000     0.878780000000     0.440800000000    -0.512931   
O274     O      0.807240000000     0.891160000000     0.405980000000    -0.492302   
O275     O      0.745070000000     0.891560000000     0.410000000000    -0.495564   
O276     O      0.778910000000     0.928910000000     0.446810000000    -0.489743   
O277     O      0.809270000000     0.924460000000     0.361160000000    -0.492208   
O278     O      0.812420000000     0.932360000000     0.442450000000    -0.514256   
O279     O      0.758510000000     0.879630000000     0.371340000000    -0.513508   
O280     O      0.785880000000     0.936370000000     0.373210000000    -0.517879   
O281     O      0.515680000000     0.709150000000     0.308800000000    -0.496819   
O282     O      0.516340000000     0.736490000000     0.337160000000    -0.485612   
O283     O      0.575360000000     0.765120000000     0.278580000000    -0.5025     
O284     O      0.538570000000     0.716790000000     0.260160000000    -0.484944   
O285     O      0.506890000000     0.754410000000     0.280180000000    -0.498863   
O286     O      0.524350000000     0.734190000000     0.233040000000    -0.50039    
O287     O      0.563090000000     0.763620000000     0.327900000000    -0.508126   
O288     O      0.541420000000     0.780030000000     0.266430000000    -0.507814   


