data_structure

_audit_creation_method RASPA-1.0
_audit_creation_date 2023-5-23
_audit_author_name 'Poobodin Mano'

_cell_length_a    46.0739
_cell_length_b    37.4135
_cell_length_c    43.8246
_cell_angle_alpha 90.0011
_cell_angle_beta  89.9994
_cell_angle_gamma 89.9996
_cell_volume      75544.2

_symmetry_cell_setting          triclinic
_symmetry_space_group_name_Hall 'P 1'
_symmetry_space_group_name_H-M  'P 1'
_symmetry_Int_Tables_number     1

_symmetry_equiv_pos_as_xyz 'x,y,z'

loop_
_atom_site_label
_atom_site_type_symbol
_atom_site_fract_x
_atom_site_fract_y
_atom_site_fract_z
_atom_site_charge
C1       C      0.371500000000     0.044280000000     0.188340000000     0.414235   
C2       C      0.436960000000     0.058490000000     0.113570000000     0.412336   
C3       C      0.399590000000     0.151160000000     0.165900000000     0.417316   
C4       C      0.463720000000     0.073300000000     0.205720000000     0.408413   
C5       C      0.125390000000     0.983500000000     0.329010000000     0.413017   
C6       C      0.190740000000     0.977380000000     0.414990000000     0.411616   
C7       C      0.148350000000     0.888030000000     0.373120000000     0.411846   
C8       C      0.212530000000     0.969370000000     0.321210000000     0.412207   
C9       C      0.324770000000     0.054540000000     0.702700000000     0.411693   
C10      C      0.268400000000     0.065080000000     0.610220000000     0.411031   
C11      C      0.235720000000     0.068210000000     0.698740000000     0.411712   
C12      C      0.307280000000     0.151160000000     0.659490000000     0.410083   
C13      C      0.075040000000     0.983600000000     0.826510000000     0.412486   
C14      C      0.017420000000     0.973330000000     0.918460000000     0.411457   
C15      C      0.985260000000     0.969680000000     0.830270000000     0.410679   
C16      C      0.057080000000     0.887550000000     0.869150000000     0.408887   
C17      C      0.382280000000     0.484360000000     0.702420000000     0.411765   
C18      C      0.438650000000     0.473800000000     0.609940000000     0.411068   
C19      C      0.471320000000     0.470710000000     0.698470000000     0.411877   
C20      C      0.399790000000     0.387710000000     0.659270000000     0.410078   
C21      C      0.132000000000     0.555330000000     0.826240000000     0.412933   
C22      C      0.189670000000     0.565580000000     0.918170000000     0.411178   
C23      C      0.221780000000     0.569240000000     0.829980000000     0.410435   
C24      C      0.149960000000     0.651350000000     0.868940000000     0.408806   
C25      C      0.081740000000     0.555690000000     0.328810000000     0.413173   
C26      C      0.016340000000     0.561640000000     0.414770000000     0.411298   
C27      C      0.058710000000     0.651060000000     0.373030000000     0.411758   
C28      C      0.994600000000     0.569770000000     0.320980000000     0.412448   
C29      C      0.335630000000     0.494940000000     0.188090000000     0.414177   
C30      C      0.270220000000     0.480550000000     0.113270000000     0.412282   
C31      C      0.307510000000     0.388000000000     0.165730000000     0.417388   
C32      C      0.243390000000     0.465980000000     0.205420000000     0.408192   
C33      C      0.200520000000     0.488500000000     0.273100000000    -0.0861183  
C34      C      0.173540000000     0.496230000000     0.259900000000     0.0356367  
C35      C      0.170020000000     0.490840000000     0.228510000000    -0.0868438  
C36      C      0.193420000000     0.479480000000     0.210860000000     0.0731688  
C37      C      0.223600000000     0.477300000000     0.254670000000     0.0734639  
C38      C      0.149510000000     0.511520000000     0.278280000000     0.0359761  
C39      C      0.142530000000     0.497860000000     0.307120000000    -0.0863497  
C40      C      0.119640000000     0.512840000000     0.323770000000     0.0738558  
C41      C      0.110910000000     0.554840000000     0.284280000000     0.0744204  
C42      C      0.133410000000     0.540370000000     0.266970000000    -0.0870509  
C43      C      0.409550000000     0.508470000000     0.215520000000    -0.0870644  
C44      C      0.405450000000     0.535430000000     0.237260000000     0.0357942  
C45      C      0.378040000000     0.551450000000     0.239530000000    -0.0862908  
C46      C      0.355060000000     0.538780000000     0.221690000000     0.0738244  
C47      C      0.386180000000     0.496580000000     0.198040000000     0.073704   
C48      C      0.429150000000     0.544930000000     0.258750000000     0.0358511  
C49      C      0.445830000000     0.517980000000     0.272330000000    -0.0867971  
C50      C      0.467550000000     0.526820000000     0.293150000000     0.0742282  
C51      C      0.456970000000     0.588490000000     0.287360000000     0.0736639  
C52      C      0.434860000000     0.580550000000     0.266560000000    -0.0861701  
C53      C      0.208990000000     0.506910000000     0.981680000000    -0.0853336  
C54      C      0.222950000000     0.530680000000     0.001670000000     0.0346295  
C55      C      0.224730000000     0.566780000000     0.993130000000    -0.0847369  
C56      C      0.213310000000     0.578070000000     0.965180000000     0.0727064  
C57      C      0.197280000000     0.519270000000     0.954270000000     0.0739406  
C58      C      0.235510000000     0.517800000000     0.031140000000     0.0361368  
C59      C      0.222820000000     0.489110000000     0.046840000000    -0.0867352  
C60      C      0.235060000000     0.476740000000     0.073960000000     0.0753234  
C61      C      0.271660000000     0.521140000000     0.071460000000     0.0730299  
C62      C      0.260350000000     0.533740000000     0.043840000000    -0.0857604  
C63      C      0.451510000000     0.531290000000     0.543810000000    -0.086072   
C64      C      0.469670000000     0.509730000000     0.525880000000     0.0357165  
C65      C      0.976280000000     0.475290000000     0.536440000000    -0.086052   
C66      C      0.465400000000     0.463510000000     0.564440000000     0.0732745  
C67      C      0.440780000000     0.518510000000     0.571540000000     0.0739175  
C68      C      0.981920000000     0.523270000000     0.496590000000     0.0357731  
C69      C      0.465680000000     0.545900000000     0.477630000000    -0.0861458  
C70      C      0.477650000000     0.558730000000     0.450480000000     0.0729137  
C71      C      0.021270000000     0.527010000000     0.459920000000     0.0730968  
C72      C      0.010100000000     0.513980000000     0.487390000000    -0.0861167  
C73      C      0.319070000000     0.536140000000     0.727140000000    -0.086187   
C74      C      0.317510000000     0.526720000000     0.758040000000     0.035951   
C75      C      0.338930000000     0.504220000000     0.770060000000    -0.0870794  
C76      C      0.360690000000     0.490830000000     0.751180000000     0.0740503  
C77      C      0.341180000000     0.522140000000     0.708830000000     0.0738087  
C78      C      0.292920000000     0.538650000000     0.777390000000     0.0358661  
C79      C      0.282470000000     0.573800000000     0.776110000000    -0.0861145  
C80      C      0.258880000000     0.583920000000     0.794280000000     0.0734311  
C81      C      0.255810000000     0.525330000000     0.814720000000     0.0741314  
C82      C      0.279350000000     0.514420000000     0.797110000000    -0.0869604  
C83      C      0.031460000000     0.466750000000     0.753070000000    -0.0861361  
C84      C      0.042040000000     0.501820000000     0.751520000000     0.0357882  
C85      C      0.028730000000     0.525830000000     0.731400000000    -0.0867962  
C86      C      0.505310000000     0.514770000000     0.713650000000     0.0740482  
C87      C      0.008020000000     0.456480000000     0.734750000000     0.0733872  
C88      C      0.066600000000     0.513800000000     0.770910000000     0.035924   
C89      C      0.067970000000     0.504770000000     0.801910000000    -0.086214   
C90      C      0.090250000000     0.518540000000     0.820140000000     0.0737554  
C91      C      0.110270000000     0.548870000000     0.777540000000     0.0740085  
C92      C      0.088320000000     0.535740000000     0.758740000000    -0.0870322  
C93      C      0.067530000000     0.790780000000     0.863810000000    -0.0861667  
C94      C      0.096250000000     0.787180000000     0.873910000000     0.0357271  
C95      C      0.111140000000     0.817880000000     0.883370000000    -0.0864728  
C96      C      0.097490000000     0.851180000000     0.882150000000     0.0733209  
C97      C      0.054590000000     0.824530000000     0.862760000000     0.0735747  
C98      C      0.110790000000     0.751710000000     0.873870000000     0.0356975  
C99      C      0.095920000000     0.720990000000     0.883320000000    -0.0864351  
C100     C      0.109570000000     0.687690000000     0.882040000000     0.0733305  
C101     C      0.152440000000     0.714380000000     0.862610000000     0.0735784  
C102     C      0.139500000000     0.748130000000     0.863720000000    -0.0861601  
C103     C      0.345790000000     0.317900000000     0.645170000000    -0.0863637  
C104     C      0.360780000000     0.287200000000     0.654480000000     0.0356463  
C105     C      0.389540000000     0.290880000000     0.664430000000    -0.0860388  
C106     C      0.402430000000     0.324670000000     0.665470000000     0.073355   
C107     C      0.359390000000     0.351250000000     0.646400000000     0.0731051  
C108     C      0.346300000000     0.251660000000     0.654520000000     0.0355647  
C109     C      0.317540000000     0.248000000000     0.664500000000    -0.0859566  
C110     C      0.304650000000     0.214210000000     0.665610000000     0.0733465  
C111     C      0.347680000000     0.187590000000     0.646540000000     0.0730974  
C112     C      0.361270000000     0.220930000000     0.645240000000    -0.0863244  
C113     C      0.368120000000     0.034720000000     0.770350000000    -0.0870804  
C114     C      0.389530000000     0.012200000000     0.758340000000     0.0359365  
C115     C      0.387960000000     0.002750000000     0.727440000000    -0.0862106  
C116     C      0.365860000000     0.016750000000     0.709130000000     0.0738182  
C117     C      0.346360000000     0.048110000000     0.751470000000     0.0739928  
C118     C      0.414120000000     0.000270000000     0.777700000000     0.0358716  
C119     C      0.427700000000     0.024500000000     0.797400000000    -0.0869993  
C120     C      0.451240000000     0.013590000000     0.815010000000     0.0741283  
C121     C      0.448150000000     0.955000000000     0.794590000000     0.0734245  
C122     C      0.424550000000     0.965110000000     0.776420000000    -0.0861411  
C123     C      0.118690000000     0.003240000000     0.759000000000    -0.0872142  
C124     C      0.140430000000     0.025150000000     0.771180000000     0.0359034  
C125     C      0.139080000000     0.034140000000     0.802190000000    -0.0861023  
C126     C      0.116800000000     0.020370000000     0.820430000000     0.0736895  
C127     C      0.096740000000     0.990110000000     0.777800000000     0.0740425  
C128     C      0.164990000000     0.037120000000     0.751790000000     0.035878   
C129     C      0.178280000000     0.013130000000     0.731650000000    -0.0869632  
C130     C      0.201710000000     0.024180000000     0.713900000000     0.0740585  
C131     C      0.199040000000     0.082450000000     0.735040000000     0.0736019  
C132     C      0.175600000000     0.072180000000     0.753360000000    -0.0861991  
C133     C      0.139100000000     0.790990000000     0.370620000000    -0.0862151  
C134     C      0.110750000000     0.787260000000     0.381740000000     0.0356849  
C135     C      0.095950000000     0.817860000000     0.391530000000    -0.086765   
C136     C      0.109250000000     0.851310000000     0.389390000000     0.0731907  
C137     C      0.151620000000     0.824890000000     0.368490000000     0.0732628  
C138     C      0.096300000000     0.751830000000     0.381720000000     0.0356863  
C139     C      0.111080000000     0.721230000000     0.391540000000    -0.0867391  
C140     C      0.097780000000     0.687780000000     0.389370000000     0.0731939  
C141     C      0.055450000000     0.714200000000     0.368400000000     0.0732701  
C142     C      0.067970000000     0.748100000000     0.370550000000    -0.0862399  
C143     C      0.241360000000     0.992980000000     0.477910000000    -0.0860026  
C144     C      0.225140000000     0.015660000000     0.496850000000     0.0353806  
C145     C      0.196990000000     0.025010000000     0.487620000000    -0.0857406  
C146     C      0.185820000000     0.012010000000     0.460140000000     0.0729125  
C147     C      0.229400000000     0.980180000000     0.450740000000     0.0729258  
C148     C      0.237380000000     0.029170000000     0.526150000000     0.0358138  
C149     C      0.255510000000     0.007590000000     0.544090000000    -0.0861856  
C150     C      0.266240000000     0.020360000000     0.571830000000     0.0739754  
C151     C      0.241680000000     0.075400000000     0.564710000000     0.073286   
C152     C      0.230810000000     0.063640000000     0.536690000000    -0.0862684  
C153     C      0.347190000000     0.309230000000     0.139460000000    -0.086967   
C154     C      0.346160000000     0.287240000000     0.165300000000     0.0357792  
C155     C      0.330870000000     0.299290000000     0.190970000000    -0.0864148  
C156     C      0.317430000000     0.332790000000     0.190530000000     0.072978   
C157     C      0.333580000000     0.342530000000     0.139830000000     0.0746996  
C158     C      0.360910000000     0.251900000000     0.165320000000     0.0357885  
C159     C      0.359930000000     0.229870000000     0.139500000000    -0.0870006  
C160     C      0.373550000000     0.196580000000     0.139920000000     0.0747308  
C161     C      0.389610000000     0.206390000000     0.190640000000     0.0730872  
C162     C      0.376170000000     0.239890000000     0.191040000000    -0.0865082  
C163     C      0.482400000000     0.972140000000     0.993440000000    -0.0846549  
C164     C      0.984190000000     0.008240000000     0.001990000000     0.0345755  
C165     C      0.998140000000     0.032000000000     0.981990000000    -0.085008   
C166     C      0.009840000000     0.019640000000     0.954570000000     0.0735935  
C167     C      0.993790000000     0.960850000000     0.965490000000     0.0729051  
C168     C      0.471650000000     0.021130000000     0.031460000000     0.0361537  
C169     C      0.446810000000     0.005220000000     0.044170000000    -0.0858542  
C170     C      0.435510000000     0.017850000000     0.071790000000     0.0731468  
C171     C      0.472140000000     0.062210000000     0.074260000000     0.0751314  
C172     C      0.984360000000     0.049820000000     0.047150000000    -0.0864677  
C173     C      0.272250000000     0.958640000000     0.266750000000    -0.0862122  
C174     C      0.278000000000     0.994270000000     0.259020000000     0.0359668  
C175     C      0.261350000000     0.021220000000     0.272670000000    -0.0869166  
C176     C      0.239630000000     0.012350000000     0.293480000000     0.0742573  
C177     C      0.250130000000     0.950680000000     0.287550000000     0.0737006  
C178     C      0.301690000000     0.003790000000     0.237530000000     0.0356776  
C179     C      0.329080000000     0.987720000000     0.239740000000    -0.0861415  
C180     C      0.352060000000     0.000390000000     0.221890000000     0.0736883  
C181     C      0.320960000000     0.042700000000     0.198360000000     0.0736986  
C182     C      0.297600000000     0.030810000000     0.215850000000    -0.0870258  
C183     C      0.064520000000     0.041260000000     0.307460000000    -0.0863477  
C184     C      0.057630000000     0.027770000000     0.278540000000     0.0358993  
C185     C      0.073830000000     0.999060000000     0.267120000000    -0.0869887  
C186     C      0.096320000000     0.984560000000     0.284400000000     0.0744423  
C187     C      0.087410000000     0.026250000000     0.324080000000     0.0738053  
C188     C      0.033590000000     0.043080000000     0.260190000000     0.0356286  
C189     C      0.006540000000     0.050540000000     0.273370000000    -0.0863481  
C190     C      0.983460000000     0.061740000000     0.254950000000     0.0736929  
C191     C      0.013740000000     0.060090000000     0.211200000000     0.0729904  
C192     C      0.037150000000     0.048730000000     0.228840000000    -0.0867834  
C193     C      0.871500000000     0.044280000000     0.188340000000     0.414475   
C194     C      0.936950000000     0.058490000000     0.113560000000     0.412322   
C195     C      0.899600000000     0.151160000000     0.165900000000     0.417308   
C196     C      0.963720000000     0.073290000000     0.205720000000     0.408407   
C197     C      0.625390000000     0.983490000000     0.329010000000     0.413212   
C198     C      0.690740000000     0.977370000000     0.414980000000     0.411487   
C199     C      0.648350000000     0.888020000000     0.373120000000     0.41168    
C200     C      0.712530000000     0.969370000000     0.321210000000     0.412228   
C201     C      0.824770000000     0.054540000000     0.702700000000     0.411686   
C202     C      0.768400000000     0.065080000000     0.610220000000     0.411065   
C203     C      0.735730000000     0.068210000000     0.698740000000     0.411796   
C204     C      0.807280000000     0.151160000000     0.659480000000     0.410071   
C205     C      0.575040000000     0.983600000000     0.826520000000     0.412511   
C206     C      0.517420000000     0.973330000000     0.918460000000     0.411303   
C207     C      0.485270000000     0.969680000000     0.830270000000     0.41063    
C208     C      0.557080000000     0.887540000000     0.869150000000     0.408848   
C209     C      0.882280000000     0.484360000000     0.702420000000     0.411567   
C210     C      0.938640000000     0.473800000000     0.609940000000     0.411245   
C211     C      0.971320000000     0.470710000000     0.698470000000     0.411765   
C212     C      0.899780000000     0.387710000000     0.659270000000     0.410064   
C213     C      0.632010000000     0.555330000000     0.826240000000     0.412338   
C214     C      0.689670000000     0.565580000000     0.918170000000     0.411207   
C215     C      0.721780000000     0.569240000000     0.829980000000     0.41052    
C216     C      0.649960000000     0.651350000000     0.868940000000     0.408728   
C217     C      0.581740000000     0.555680000000     0.328810000000     0.413115   
C218     C      0.516340000000     0.561630000000     0.414770000000     0.411413   
C219     C      0.558710000000     0.651060000000     0.373020000000     0.411475   
C220     C      0.494600000000     0.569770000000     0.320980000000     0.412019   
C221     C      0.835630000000     0.494940000000     0.188090000000     0.414623   
C222     C      0.770220000000     0.480550000000     0.113280000000     0.412399   
C223     C      0.807520000000     0.388000000000     0.165730000000     0.417739   
C224     C      0.743390000000     0.465980000000     0.205420000000     0.4087     
C225     C      0.700530000000     0.488500000000     0.273100000000    -0.0861519  
C226     C      0.673540000000     0.496220000000     0.259900000000     0.0356407  
C227     C      0.670020000000     0.490840000000     0.228510000000    -0.0868566  
C228     C      0.693420000000     0.479470000000     0.210860000000     0.0731906  
C229     C      0.723600000000     0.477300000000     0.254670000000     0.0735196  
C230     C      0.649510000000     0.511510000000     0.278280000000     0.035986   
C231     C      0.642530000000     0.497860000000     0.307120000000    -0.0863241  
C232     C      0.619640000000     0.512830000000     0.323770000000     0.0738066  
C233     C      0.610910000000     0.554830000000     0.284270000000     0.074429   
C234     C      0.633410000000     0.540360000000     0.266970000000    -0.0870488  
C235     C      0.909550000000     0.508480000000     0.215520000000    -0.0870396  
C236     C      0.905450000000     0.535440000000     0.237260000000     0.0358019  
C237     C      0.878040000000     0.551460000000     0.239530000000    -0.0863332  
C238     C      0.855060000000     0.538790000000     0.221690000000     0.0738573  
C239     C      0.886180000000     0.496580000000     0.198040000000     0.0736979  
C240     C      0.929150000000     0.544940000000     0.258750000000     0.0358885  
C241     C      0.945840000000     0.517980000000     0.272330000000    -0.086885   
C242     C      0.967550000000     0.526830000000     0.293150000000     0.0743199  
C243     C      0.956980000000     0.588490000000     0.287370000000     0.0738623  
C244     C      0.934860000000     0.580560000000     0.266560000000    -0.0862641  
C245     C      0.708990000000     0.506910000000     0.981690000000    -0.0852807  
C246     C      0.722950000000     0.530680000000     0.001680000000     0.0346248  
C247     C      0.724730000000     0.566780000000     0.993130000000    -0.0847742  
C248     C      0.713310000000     0.578070000000     0.965190000000     0.0727052  
C249     C      0.697280000000     0.519270000000     0.954280000000     0.073911   
C250     C      0.735510000000     0.517800000000     0.031140000000     0.036105   
C251     C      0.722820000000     0.489110000000     0.046850000000    -0.0867007  
C252     C      0.735060000000     0.476740000000     0.073960000000     0.0752978  
C253     C      0.771660000000     0.521140000000     0.071460000000     0.0729971  
C254     C      0.760350000000     0.533740000000     0.043840000000    -0.0857347  
C255     C      0.951500000000     0.531290000000     0.543810000000    -0.0860083  
C256     C      0.969670000000     0.509740000000     0.525880000000     0.0356232  
C257     C      0.476280000000     0.475280000000     0.536440000000    -0.0861769  
C258     C      0.965400000000     0.463510000000     0.564440000000     0.07324    
C259     C      0.940770000000     0.518510000000     0.571540000000     0.0738782  
C260     C      0.481920000000     0.523270000000     0.496590000000     0.0355166  
C261     C      0.965680000000     0.545900000000     0.477630000000    -0.086248   
C262     C      0.977650000000     0.558740000000     0.450480000000     0.0731137  
C263     C      0.521270000000     0.527010000000     0.459920000000     0.0730821  
C264     C      0.510100000000     0.513970000000     0.487390000000    -0.0858777  
C265     C      0.819070000000     0.536140000000     0.727140000000    -0.0861692  
C266     C      0.817510000000     0.526710000000     0.758040000000     0.0359594  
C267     C      0.838930000000     0.504210000000     0.770070000000    -0.0871716  
C268     C      0.860690000000     0.490830000000     0.751180000000     0.0741056  
C269     C      0.841180000000     0.522140000000     0.708830000000     0.0737673  
C270     C      0.792920000000     0.538650000000     0.777400000000     0.0359209  
C271     C      0.782480000000     0.573800000000     0.776110000000    -0.0861431  
C272     C      0.758880000000     0.583920000000     0.794280000000     0.0734161  
C273     C      0.755810000000     0.525330000000     0.814720000000     0.074154   
C274     C      0.779350000000     0.514420000000     0.797110000000    -0.0870007  
C275     C      0.531460000000     0.466750000000     0.753070000000    -0.0862671  
C276     C      0.542040000000     0.501820000000     0.751520000000     0.0359263  
C277     C      0.528730000000     0.525830000000     0.731400000000    -0.0869687  
C278     C      0.005310000000     0.514770000000     0.713650000000     0.0736239  
C279     C      0.508020000000     0.456480000000     0.734750000000     0.0736833  
C280     C      0.566600000000     0.513800000000     0.770910000000     0.0358725  
C281     C      0.567970000000     0.504770000000     0.801910000000    -0.0861129  
C282     C      0.590250000000     0.518540000000     0.820150000000     0.0736511  
C283     C      0.610270000000     0.548870000000     0.777540000000     0.0740016  
C284     C      0.588320000000     0.535750000000     0.758740000000    -0.0870688  
C285     C      0.567540000000     0.790780000000     0.863810000000    -0.0861358  
C286     C      0.596250000000     0.787180000000     0.873910000000     0.0357544  
C287     C      0.611140000000     0.817880000000     0.883370000000    -0.0864651  
C288     C      0.597490000000     0.851180000000     0.882160000000     0.0733152  
C289     C      0.554590000000     0.824530000000     0.862760000000     0.0735671  
C290     C      0.610790000000     0.751710000000     0.873880000000     0.035693   
C291     C      0.595920000000     0.720990000000     0.883320000000    -0.0864259  
C292     C      0.609570000000     0.687690000000     0.882040000000     0.0733325  
C293     C      0.652440000000     0.714380000000     0.862610000000     0.073575   
C294     C      0.639500000000     0.748130000000     0.863720000000    -0.0861455  
C295     C      0.845790000000     0.317900000000     0.645160000000    -0.0863399  
C296     C      0.860770000000     0.287200000000     0.654480000000     0.0356071  
C297     C      0.889540000000     0.290880000000     0.664430000000    -0.0859845  
C298     C      0.902430000000     0.324670000000     0.665470000000     0.0733332  
C299     C      0.859380000000     0.351250000000     0.646390000000     0.0730452  
C300     C      0.846300000000     0.251660000000     0.654520000000     0.0355834  
C301     C      0.817530000000     0.248000000000     0.664500000000    -0.0859725  
C302     C      0.804640000000     0.214210000000     0.665600000000     0.073342   
C303     C      0.847680000000     0.187590000000     0.646540000000     0.07311    
C304     C      0.861270000000     0.220930000000     0.645240000000    -0.0863816  
C305     C      0.868120000000     0.034720000000     0.770350000000    -0.0871061  
C306     C      0.889530000000     0.012200000000     0.758340000000     0.0359594  
C307     C      0.887960000000     0.002750000000     0.727440000000    -0.0862042  
C308     C      0.865860000000     0.016750000000     0.709120000000     0.0737801  
C309     C      0.846360000000     0.048110000000     0.751460000000     0.0740746  
C310     C      0.914110000000     0.000270000000     0.777700000000     0.035832   
C311     C      0.927690000000     0.024500000000     0.797400000000    -0.086978   
C312     C      0.951230000000     0.013590000000     0.815010000000     0.0741105  
C313     C      0.948150000000     0.955000000000     0.794590000000     0.0735196  
C314     C      0.924560000000     0.965110000000     0.776420000000    -0.0860851  
C315     C      0.618690000000     0.003240000000     0.759010000000    -0.087181   
C316     C      0.640430000000     0.025150000000     0.771180000000     0.0359066  
C317     C      0.639080000000     0.034140000000     0.802190000000    -0.0861183  
C318     C      0.616810000000     0.020370000000     0.820430000000     0.0736941  
C319     C      0.596750000000     0.990110000000     0.777810000000     0.0740807  
C320     C      0.664990000000     0.037120000000     0.751790000000     0.0358846  
C321     C      0.678290000000     0.013120000000     0.731650000000    -0.0870119  
C322     C      0.701710000000     0.024180000000     0.713900000000     0.074094   
C323     C      0.699040000000     0.082440000000     0.735040000000     0.073677   
C324     C      0.675600000000     0.072180000000     0.753360000000    -0.0862437  
C325     C      0.639100000000     0.790990000000     0.370620000000    -0.0863039  
C326     C      0.610750000000     0.787260000000     0.381730000000     0.03575    
C327     C      0.595950000000     0.817850000000     0.391520000000    -0.0867914  
C328     C      0.609250000000     0.851300000000     0.389380000000     0.0732195  
C329     C      0.651620000000     0.824890000000     0.368490000000     0.0733372  
C330     C      0.596290000000     0.751820000000     0.381710000000     0.035696   
C331     C      0.611080000000     0.721220000000     0.391530000000    -0.0867496  
C332     C      0.597780000000     0.687770000000     0.389370000000     0.0731793  
C333     C      0.555440000000     0.714190000000     0.368400000000     0.0733089  
C334     C      0.567960000000     0.748090000000     0.370550000000    -0.0862733  
C335     C      0.741360000000     0.992970000000     0.477910000000    -0.0861509  
C336     C      0.725140000000     0.015650000000     0.496840000000     0.0354998  
C337     C      0.696990000000     0.025010000000     0.487620000000    -0.0858469  
C338     C      0.685820000000     0.012000000000     0.460140000000     0.0729764  
C339     C      0.729390000000     0.980170000000     0.450740000000     0.0730125  
C340     C      0.737380000000     0.029170000000     0.526150000000     0.0357638  
C341     C      0.755510000000     0.007590000000     0.544090000000    -0.0861003  
C342     C      0.766240000000     0.020350000000     0.571830000000     0.0738943  
C343     C      0.741680000000     0.075390000000     0.564700000000     0.0732872  
C344     C      0.730810000000     0.063630000000     0.536690000000    -0.0862161  
C345     C      0.847190000000     0.309230000000     0.139460000000    -0.0869254  
C346     C      0.846170000000     0.287240000000     0.165300000000     0.0357741  
C347     C      0.830880000000     0.299290000000     0.190980000000    -0.0864466  
C348     C      0.817440000000     0.332790000000     0.190530000000     0.0730877  
C349     C      0.833580000000     0.342540000000     0.139830000000     0.0746771  
C350     C      0.860920000000     0.251900000000     0.165330000000     0.0357759  
C351     C      0.859930000000     0.229870000000     0.139510000000    -0.086909   
C352     C      0.873550000000     0.196580000000     0.139920000000     0.0746728  
C353     C      0.889620000000     0.206390000000     0.190640000000     0.0730192  
C354     C      0.876170000000     0.239890000000     0.191040000000    -0.0864169  
C355     C      0.982390000000     0.972140000000     0.993440000000    -0.0847831  
C356     C      0.484190000000     0.008240000000     0.001990000000     0.0345291  
C357     C      0.498150000000     0.032000000000     0.981990000000    -0.0852788  
C358     C      0.509840000000     0.019640000000     0.954570000000     0.0738555  
C359     C      0.493790000000     0.960850000000     0.965490000000     0.0727132  
C360     C      0.971650000000     0.021130000000     0.031450000000     0.0360498  
C361     C      0.946800000000     0.005220000000     0.044170000000    -0.0858026  
C362     C      0.935500000000     0.017850000000     0.071780000000     0.0730621  
C363     C      0.972130000000     0.062210000000     0.074260000000     0.0751893  
C364     C      0.484360000000     0.049810000000     0.047160000000    -0.0866652  
C365     C      0.772240000000     0.958640000000     0.266750000000    -0.0862574  
C366     C      0.778000000000     0.994270000000     0.259020000000     0.0359604  
C367     C      0.761350000000     0.021220000000     0.272670000000    -0.086855   
C368     C      0.739630000000     0.012350000000     0.293490000000     0.074173   
C369     C      0.750130000000     0.950680000000     0.287550000000     0.0738095  
C370     C      0.801690000000     0.003790000000     0.237530000000     0.0356835  
C371     C      0.829080000000     0.987710000000     0.239740000000    -0.086178   
C372     C      0.852060000000     0.000390000000     0.221890000000     0.0737105  
C373     C      0.820960000000     0.042700000000     0.198360000000     0.0737103  
C374     C      0.797600000000     0.030810000000     0.215850000000    -0.0870137  
C375     C      0.564510000000     0.041260000000     0.307460000000    -0.0863317  
C376     C      0.557630000000     0.027770000000     0.278540000000     0.0359617  
C377     C      0.573830000000     0.999070000000     0.267110000000    -0.0870756  
C378     C      0.596320000000     0.984560000000     0.284400000000     0.0744544  
C379     C      0.587400000000     0.026250000000     0.324090000000     0.0737346  
C380     C      0.533580000000     0.043080000000     0.260190000000     0.0356463  
C381     C      0.506540000000     0.050540000000     0.273380000000    -0.0861992  
C382     C      0.483460000000     0.061740000000     0.254950000000     0.0734934  
C383     C      0.513740000000     0.060110000000     0.211200000000     0.0731318  
C384     C      0.537150000000     0.048750000000     0.228850000000    -0.086793   
H1       H      0.149350000000     0.495830000000     0.217530000000     0.0537666  
H2       H      0.189900000000     0.476320000000     0.186540000000     0.0316718  
H3       H      0.244430000000     0.472550000000     0.265460000000     0.0310725  
H4       H      0.204120000000     0.492370000000     0.297300000000     0.0538254  
H5       H      0.154390000000     0.475460000000     0.316590000000     0.0539213  
H6       H      0.114690000000     0.501480000000     0.345930000000     0.0319911  
H7       H      0.099060000000     0.577230000000     0.274700000000     0.0305283  
H8       H      0.138390000000     0.552090000000     0.244980000000     0.0539526  
H9       H      0.373970000000     0.572430000000     0.256020000000     0.0538262  
H10      H      0.333850000000     0.550780000000     0.224930000000     0.0306985  
H11      H      0.390060000000     0.474860000000     0.182160000000     0.030712   
H12      H      0.430570000000     0.495980000000     0.212540000000     0.0537416  
H13      H      0.441810000000     0.490050000000     0.267340000000     0.0538017  
H14      H      0.979870000000     0.505130000000     0.303240000000     0.0304347  
H15      H      0.460890000000     0.616350000000     0.292790000000     0.0323029  
H16      H      0.422520000000     0.602180000000     0.256470000000     0.0537871  
H17      H      0.234660000000     0.586440000000     0.007940000000     0.052371   
H18      H      0.215360000000     0.606120000000     0.959310000000     0.0299935  
H19      H      0.186870000000     0.499920000000     0.939450000000     0.0322071  
H20      H      0.207500000000     0.478660000000     0.986730000000     0.0531746  
H21      H      0.203260000000     0.476350000000     0.038590000000     0.0532853  
H22      H      0.224480000000     0.454480000000     0.085260000000     0.0327007  
H23      H      0.290810000000     0.534160000000     0.080570000000     0.0295385  
H24      H      0.271350000000     0.555520000000     0.032430000000     0.0528431  
H25      H      0.989700000000     0.457340000000     0.523140000000     0.0532505  
H26      H      0.971250000000     0.436840000000     0.571920000000     0.0299995  
H27      H      0.427090000000     0.536190000000     0.584870000000     0.0322653  
H28      H      0.446060000000     0.558250000000     0.536890000000     0.0533561  
H29      H      0.443670000000     0.553400000000     0.483440000000     0.053144   
H30      H      0.464340000000     0.576100000000     0.436450000000     0.0301496  
H31      H      0.043140000000     0.519200000000     0.453640000000     0.0316759  
H32      H      0.023710000000     0.497120000000     0.501480000000     0.0533387  
H33      H      0.338790000000     0.496750000000     0.793950000000     0.0536957  
H34      H      0.376660000000     0.473160000000     0.761330000000     0.0306739  
H35      H      0.341430000000     0.529430000000     0.684880000000     0.0319004  
H36      H      0.302820000000     0.553300000000     0.716920000000     0.0540804  
H37      H      0.292550000000     0.593410000000     0.761330000000     0.053852   
H38      H      0.251270000000     0.611280000000     0.792690000000     0.0316511  
H39      H      0.245770000000     0.505580000000     0.829450000000     0.0311792  
H40      H      0.286470000000     0.486870000000     0.798510000000     0.0539057  
H41      H      0.035980000000     0.553300000000     0.729760000000     0.0538078  
H42      H      0.495460000000     0.534330000000     0.698600000000     0.0308388  
H43      H      0.000320000000     0.429180000000     0.736550000000     0.0317584  
H44      H      0.041330000000     0.447310000000     0.768150000000     0.053922   
H45      H      0.051490000000     0.488050000000     0.812240000000     0.0540719  
H46      H      0.090370000000     0.511540000000     0.844150000000     0.0315908  
H47      H      0.126510000000     0.566050000000     0.767240000000     0.030639   
H48      H      0.088330000000     0.542900000000     0.734780000000     0.0536746  
H49      H      0.133220000000     0.816240000000     0.891740000000     0.0536958  
H50      H      0.109820000000     0.874330000000     0.889480000000     0.0306895  
H51      H      0.032490000000     0.826300000000     0.854380000000     0.0321766  
H52      H      0.055320000000     0.767790000000     0.856020000000     0.0538364  
H53      H      0.073850000000     0.722620000000     0.891730000000     0.0536617  
H54      H      0.097250000000     0.664530000000     0.889360000000     0.0306738  
H55      H      0.174530000000     0.712620000000     0.854190000000     0.0322087  
H56      H      0.151700000000     0.771130000000     0.855950000000     0.0538679  
H57      H      0.401850000000     0.267920000000     0.672120000000     0.0537597  
H58      H      0.424570000000     0.326480000000     0.673730000000     0.0320206  
H59      H      0.346980000000     0.374390000000     0.639200000000     0.0304907  
H60      H      0.323680000000     0.316230000000     0.636890000000     0.0535585  
H61      H      0.305230000000     0.270980000000     0.672160000000     0.0537287  
H62      H      0.282510000000     0.212420000000     0.673890000000     0.0320282  
H63      H      0.360090000000     0.164430000000     0.639360000000     0.0305021  
H64      H      0.383380000000     0.222590000000     0.636950000000     0.0535385  
H65      H      0.404210000000     0.985570000000     0.717230000000     0.0541032  
H66      H      0.365600000000     0.009440000000     0.685190000000     0.0318826  
H67      H      0.330400000000     0.065790000000     0.761610000000     0.0306727  
H68      H      0.368270000000     0.042210000000     0.794230000000     0.0537007  
H69      H      0.420580000000     0.052050000000     0.798790000000     0.0539134  
H70      H      0.961280000000     0.033340000000     0.829730000000     0.0311856  
H71      H      0.455760000000     0.927630000000     0.793010000000     0.0316759  
H72      H      0.414480000000     0.945500000000     0.761650000000     0.0538967  
H73      H      0.155580000000     0.050840000000     0.812530000000     0.0540331  
H74      H      0.116700000000     0.027350000000     0.844440000000     0.0315959  
H75      H      0.080500000000     0.972960000000     0.767500000000     0.0306012  
H76      H      0.118670000000     0.996120000000     0.735050000000     0.0537965  
H77      H      0.171010000000     0.985660000000     0.730000000000     0.0538938  
H78      H      0.211540000000     0.004620000000     0.698830000000     0.0308231  
H79      H      0.206760000000     0.109740000000     0.736860000000     0.0317574  
H80      H      0.165750000000     0.091620000000     0.768460000000     0.0539385  
H81      H      0.074130000000     0.816010000000     0.400600000000     0.0536092  
H82      H      0.096960000000     0.874440000000     0.396820000000     0.0301636  
H83      H      0.173350000000     0.826830000000     0.359110000000     0.0318997  
H84      H      0.151210000000     0.768000000000     0.362630000000     0.0541349  
H85      H      0.132890000000     0.723070000000     0.400650000000     0.0536068  
H86      H      0.110060000000     0.664640000000     0.396830000000     0.0301958  
H87      H      0.033740000000     0.712270000000     0.358980000000     0.0318761  
H88      H      0.055870000000     0.771090000000     0.362550000000     0.0541254  
H89      H      0.183390000000     0.041900000000     0.501700000000     0.0532775  
H90      H      0.163970000000     0.019870000000     0.453830000000     0.0317161  
H91      H      0.242690000000     0.962780000000     0.436730000000     0.0301359  
H92      H      0.263360000000     0.985430000000     0.483740000000     0.0531021  
H93      H      0.260930000000     0.980620000000     0.537180000000     0.0534177  
H94      H      0.279900000000     0.002660000000     0.585180000000     0.0322488  
H95      H      0.235860000000     0.102090000000     0.572170000000     0.0299591  
H96      H      0.217430000000     0.081600000000     0.523390000000     0.0533011  
H97      H      0.329130000000     0.282880000000     0.211250000000     0.0532927  
H98      H      0.306000000000     0.341360000000     0.210890000000     0.0296493  
H99      H      0.335240000000     0.358940000000     0.119500000000     0.0311006  
H100     H      0.358960000000     0.301150000000     0.119210000000     0.0536631  
H101     H      0.348190000000     0.237930000000     0.119230000000     0.0536812  
H102     H      0.371910000000     0.180150000000     0.119600000000     0.0310861  
H103     H      0.401020000000     0.197850000000     0.211030000000     0.0296178  
H104     H      0.377880000000     0.256320000000     0.211300000000     0.0533421  
H105     H      0.999650000000     0.060260000000     0.987030000000     0.0531319  
H106     H      0.020240000000     0.038990000000     0.939740000000     0.0322338  
H107     H      0.991730000000     0.932800000000     0.959610000000     0.0300035  
H108     H      0.472460000000     0.952490000000     0.008260000000     0.052347   
H109     H      0.435790000000     0.983440000000     0.032770000000     0.0528785  
H110     H      0.416340000000     0.004850000000     0.080910000000     0.0295058  
H111     H      0.982720000000     0.084470000000     0.085560000000     0.0327902  
H112     H      0.003930000000     0.062550000000     0.038890000000     0.0530792  
H113     H      0.265400000000     0.049150000000     0.267740000000     0.0538486  
H114     H      0.227350000000     0.034040000000     0.303630000000     0.0303774  
H115     H      0.246180000000     0.922810000000     0.292920000000     0.0322827  
H116     H      0.284560000000     0.937020000000     0.256610000000     0.0538104  
H117     H      0.333140000000     0.966690000000     0.256180000000     0.0538083  
H118     H      0.373250000000     0.988350000000     0.225090000000     0.0307739  
H119     H      0.317080000000     0.064460000000     0.182520000000     0.0307107  
H120     H      0.276590000000     0.043340000000     0.212900000000     0.0537181  
H121     H      0.068920000000     0.987480000000     0.245050000000     0.0539237  
H122     H      0.108250000000     0.962280000000     0.274740000000     0.0305397  
H123     H      0.092290000000     0.037480000000     0.346310000000     0.0320052  
H124     H      0.052580000000     0.063550000000     0.317010000000     0.053905   
H125     H      0.002910000000     0.046470000000     0.297540000000     0.0538356  
H126     H      0.462590000000     0.066260000000     0.265720000000     0.0310534  
H127     H      0.017300000000     0.063460000000     0.186900000000     0.0316596  
H128     H      0.057870000000     0.043940000000     0.217880000000     0.0537139  
H129     H      0.649350000000     0.495820000000     0.217530000000     0.0537861  
H130     H      0.689900000000     0.476310000000     0.186540000000     0.0316594  
H131     H      0.744430000000     0.472560000000     0.265460000000     0.0310523  
H132     H      0.704130000000     0.492370000000     0.297300000000     0.0538381  
H133     H      0.654390000000     0.475460000000     0.316590000000     0.0539238  
H134     H      0.614690000000     0.501480000000     0.345930000000     0.0320131  
H135     H      0.599050000000     0.577210000000     0.274700000000     0.030548   
H136     H      0.638390000000     0.552080000000     0.244980000000     0.0539629  
H137     H      0.873970000000     0.572430000000     0.256020000000     0.0538588  
H138     H      0.833850000000     0.550780000000     0.224930000000     0.0306933  
H139     H      0.890070000000     0.474870000000     0.182160000000     0.0307096  
H140     H      0.930570000000     0.495990000000     0.212540000000     0.0537522  
H141     H      0.941820000000     0.490060000000     0.267340000000     0.0538624  
H142     H      0.479860000000     0.505120000000     0.303240000000     0.0304054  
H143     H      0.960890000000     0.616360000000     0.292790000000     0.0322894  
H144     H      0.922520000000     0.602180000000     0.256470000000     0.0538433  
H145     H      0.734660000000     0.586430000000     0.007940000000     0.0524008  
H146     H      0.715360000000     0.606120000000     0.959310000000     0.0300173  
H147     H      0.686870000000     0.499910000000     0.939450000000     0.0322326  
H148     H      0.707500000000     0.478650000000     0.986730000000     0.0531498  
H149     H      0.703260000000     0.476350000000     0.038590000000     0.0532797  
H150     H      0.724490000000     0.454480000000     0.085270000000     0.0327265  
H151     H      0.790810000000     0.534160000000     0.080570000000     0.029558   
H152     H      0.771350000000     0.555520000000     0.032430000000     0.0528407  
H153     H      0.489700000000     0.457340000000     0.523140000000     0.0532543  
H154     H      0.471250000000     0.436840000000     0.571920000000     0.0299705  
H155     H      0.927090000000     0.536190000000     0.584870000000     0.032276   
H156     H      0.946060000000     0.558250000000     0.536890000000     0.0533626  
H157     H      0.943670000000     0.553400000000     0.483440000000     0.0531839  
H158     H      0.964340000000     0.576110000000     0.436460000000     0.0301404  
H159     H      0.543140000000     0.519200000000     0.453640000000     0.0316875  
H160     H      0.523710000000     0.497120000000     0.501480000000     0.0533501  
H161     H      0.838790000000     0.496750000000     0.793950000000     0.0537606  
H162     H      0.876660000000     0.473160000000     0.761330000000     0.0306789  
H163     H      0.841430000000     0.529430000000     0.684880000000     0.0319262  
H164     H      0.802820000000     0.553300000000     0.716920000000     0.0540806  
H165     H      0.792550000000     0.593410000000     0.761330000000     0.0538773  
H166     H      0.751270000000     0.611280000000     0.792700000000     0.0316633  
H167     H      0.745770000000     0.505580000000     0.829450000000     0.031178   
H168     H      0.786470000000     0.486870000000     0.798510000000     0.0539209  
H169     H      0.535980000000     0.553300000000     0.729770000000     0.0538935  
H170     H      0.995460000000     0.534330000000     0.698590000000     0.03106    
H171     H      0.500320000000     0.429180000000     0.736550000000     0.0317578  
H172     H      0.541330000000     0.447310000000     0.768150000000     0.0539776  
H173     H      0.551490000000     0.488050000000     0.812240000000     0.0540713  
H174     H      0.590370000000     0.511540000000     0.844160000000     0.031644   
H175     H      0.626510000000     0.566050000000     0.767240000000     0.0306505  
H176     H      0.588330000000     0.542900000000     0.734790000000     0.053729   
H177     H      0.633220000000     0.816240000000     0.891740000000     0.0537003  
H178     H      0.609820000000     0.874330000000     0.889480000000     0.0306958  
H179     H      0.532490000000     0.826300000000     0.854380000000     0.0322083  
H180     H      0.555320000000     0.767790000000     0.856030000000     0.0538448  
H181     H      0.573850000000     0.722620000000     0.891730000000     0.0536796  
H182     H      0.597250000000     0.664530000000     0.889360000000     0.030692   
H183     H      0.674530000000     0.712620000000     0.854190000000     0.0322104  
H184     H      0.651700000000     0.771130000000     0.855950000000     0.0538701  
H185     H      0.901850000000     0.267920000000     0.672120000000     0.0537609  
H186     H      0.924570000000     0.326480000000     0.673730000000     0.0320503  
H187     H      0.846970000000     0.374390000000     0.639190000000     0.0305075  
H188     H      0.823680000000     0.316230000000     0.636890000000     0.0535646  
H189     H      0.805230000000     0.270980000000     0.672160000000     0.053753   
H190     H      0.782510000000     0.212420000000     0.673880000000     0.0320226  
H191     H      0.860080000000     0.164430000000     0.639360000000     0.0305072  
H192     H      0.883370000000     0.222590000000     0.636950000000     0.0535945  
H193     H      0.904210000000     0.985580000000     0.717230000000     0.0541291  
H194     H      0.865600000000     0.009440000000     0.685180000000     0.0319036  
H195     H      0.830400000000     0.065790000000     0.761610000000     0.0306563  
H196     H      0.868270000000     0.042210000000     0.794230000000     0.0537148  
H197     H      0.920580000000     0.052050000000     0.798790000000     0.0539286  
H198     H      0.461280000000     0.033340000000     0.829730000000     0.0311607  
H199     H      0.955760000000     0.927630000000     0.793010000000     0.0316683  
H200     H      0.914480000000     0.945500000000     0.761640000000     0.0538687  
H201     H      0.655580000000     0.050840000000     0.812530000000     0.0540445  
H202     H      0.616700000000     0.027350000000     0.844440000000     0.031614   
H203     H      0.580500000000     0.972950000000     0.767500000000     0.0306331  
H204     H      0.618670000000     0.996110000000     0.735050000000     0.0537681  
H205     H      0.671010000000     0.985660000000     0.730000000000     0.0539258  
H206     H      0.711540000000     0.004620000000     0.698830000000     0.0308275  
H207     H      0.706760000000     0.109740000000     0.736860000000     0.0317573  
H208     H      0.665750000000     0.091620000000     0.768460000000     0.0539609  
H209     H      0.574130000000     0.816010000000     0.400600000000     0.053625   
H210     H      0.596960000000     0.874440000000     0.396820000000     0.0301908  
H211     H      0.673340000000     0.826820000000     0.359100000000     0.031877   
H212     H      0.651200000000     0.768000000000     0.362630000000     0.0541777  
H213     H      0.632880000000     0.723070000000     0.400650000000     0.05363    
H214     H      0.610060000000     0.664640000000     0.396820000000     0.0301946  
H215     H      0.533740000000     0.712260000000     0.358970000000     0.0318847  
H216     H      0.555870000000     0.771080000000     0.362550000000     0.0541726  
H217     H      0.683390000000     0.041900000000     0.501690000000     0.0533291  
H218     H      0.663970000000     0.019860000000     0.453830000000     0.0317175  
H219     H      0.742690000000     0.962770000000     0.436730000000     0.0301253  
H220     H      0.763350000000     0.985420000000     0.483740000000     0.0531729  
H221     H      0.760920000000     0.980610000000     0.537180000000     0.0533864  
H222     H      0.779890000000     0.002650000000     0.585170000000     0.0322559  
H223     H      0.735860000000     0.102080000000     0.572170000000     0.0299828  
H224     H      0.717430000000     0.081600000000     0.523380000000     0.0532674  
H225     H      0.829140000000     0.282880000000     0.211260000000     0.0533103  
H226     H      0.806010000000     0.341360000000     0.210890000000     0.0296274  
H227     H      0.835250000000     0.358940000000     0.119500000000     0.0310972  
H228     H      0.858960000000     0.301150000000     0.119210000000     0.05366    
H229     H      0.848190000000     0.237930000000     0.119230000000     0.0536425  
H230     H      0.871920000000     0.180150000000     0.119610000000     0.031103   
H231     H      0.901020000000     0.197850000000     0.211030000000     0.0296376  
H232     H      0.877890000000     0.256320000000     0.211310000000     0.0533056  
H233     H      0.499650000000     0.060250000000     0.987030000000     0.0531661  
H234     H      0.520240000000     0.038990000000     0.939740000000     0.0322187  
H235     H      0.491730000000     0.932800000000     0.959610000000     0.0299992  
H236     H      0.972460000000     0.952500000000     0.008250000000     0.0524447  
H237     H      0.935780000000     0.983450000000     0.032770000000     0.0528952  
H238     H      0.916340000000     0.004850000000     0.080900000000     0.0295236  
H239     H      0.482720000000     0.084470000000     0.085560000000     0.0327706  
H240     H      0.503930000000     0.062550000000     0.038890000000     0.0532519  
H241     H      0.765400000000     0.049150000000     0.267740000000     0.0538358  
H242     H      0.727350000000     0.034040000000     0.303630000000     0.0303948  
H243     H      0.746180000000     0.922810000000     0.292910000000     0.0322524  
H244     H      0.784550000000     0.937020000000     0.256610000000     0.053829   
H245     H      0.833140000000     0.966690000000     0.256180000000     0.0538444  
H246     H      0.873250000000     0.988350000000     0.225090000000     0.0307812  
H247     H      0.817080000000     0.064460000000     0.182520000000     0.0307143  
H248     H      0.776590000000     0.043350000000     0.212910000000     0.0537129  
H249     H      0.568930000000     0.987500000000     0.245050000000     0.0540026  
H250     H      0.608260000000     0.962290000000     0.274730000000     0.0305464  
H251     H      0.592270000000     0.037470000000     0.346320000000     0.0320304  
H252     H      0.552570000000     0.063540000000     0.317020000000     0.0539316  
H253     H      0.502910000000     0.046450000000     0.297540000000     0.0538704  
H254     H      0.962600000000     0.066270000000     0.265710000000     0.031029   
H255     H      0.517300000000     0.063490000000     0.186910000000     0.031677   
H256     H      0.557870000000     0.043970000000     0.217890000000     0.0537402  
In1      In     0.417620000000     0.082260000000     0.168150000000     2.4024     
In2      In     0.169450000000     0.954060000000     0.360890000000     2.42028    
In3      In     0.284060000000     0.085390000000     0.667060000000     2.42519    
In4      In     0.033800000000     0.953160000000     0.861790000000     2.42624    
In5      In     0.423000000000     0.453510000000     0.666790000000     2.42524    
In6      In     0.173250000000     0.585760000000     0.861510000000     2.4264     
In7      In     0.037640000000     0.585040000000     0.360710000000     2.41952    
In8      In     0.289520000000     0.456920000000     0.167910000000     2.40212    
In9      In     0.917620000000     0.082250000000     0.168150000000     2.40223    
In10     In     0.669450000000     0.954060000000     0.360890000000     2.41977    
In11     In     0.784060000000     0.085380000000     0.667060000000     2.42488    
In12     In     0.533800000000     0.953160000000     0.861790000000     2.42662    
In13     In     0.922990000000     0.453500000000     0.666790000000     2.42541    
In14     In     0.673260000000     0.585760000000     0.861510000000     2.42631    
In15     In     0.537640000000     0.585030000000     0.360700000000     2.41982    
In16     In     0.789530000000     0.456920000000     0.167910000000     2.40251    
N1       N      0.220160000000     0.473690000000     0.223720000000    -0.19353    
N2       N      0.104040000000     0.541100000000     0.312380000000    -0.193847   
N3       N      0.358950000000     0.510690000000     0.201980000000    -0.194739   
N4       N      0.473080000000     0.561770000000     0.300570000000    -0.193579   
N5       N      0.199790000000     0.554440000000     0.945940000000    -0.193993   
N6       N      0.259150000000     0.492750000000     0.086230000000    -0.193628   
N7       N      0.448020000000     0.485100000000     0.581930000000    -0.194013   
N8       N      0.005170000000     0.549240000000     0.441690000000    -0.194811   
N9       N      0.361510000000     0.499260000000     0.720730000000    -0.194122   
N10      N      0.245570000000     0.559710000000     0.813180000000    -0.193865   
N11      N      0.494960000000     0.480450000000     0.715440000000    -0.193972   
N12      N      0.110960000000     0.540770000000     0.808060000000    -0.194312   
N13      N      0.069580000000     0.854480000000     0.871570000000    -0.193262   
N14      N      0.137460000000     0.684420000000     0.871410000000    -0.19323    
N15      N      0.387340000000     0.354610000000     0.656830000000    -0.193791   
N16      N      0.319730000000     0.184260000000     0.656990000000    -0.19374    
N17      N      0.345540000000     0.039650000000     0.721020000000    -0.194074   
N18      N      0.461480000000     0.979210000000     0.813480000000    -0.193906   
N19      N      0.096080000000     0.998180000000     0.808330000000    -0.194157   
N20      N      0.212090000000     0.058480000000     0.715710000000    -0.194018   
N21      N      0.136600000000     0.854800000000     0.377350000000    -0.194587   
N22      N      0.070450000000     0.684280000000     0.377280000000    -0.194614   
N23      N      0.201910000000     0.989740000000     0.441930000000    -0.194697   
N24      N      0.259030000000     0.053780000000     0.582200000000    -0.193969   
N25      N      0.319120000000     0.354340000000     0.165270000000    -0.195405   
N26      N      0.387970000000     0.184810000000     0.165400000000    -0.19543    
N27      N      0.007310000000     0.984470000000     0.946240000000    -0.19405    
N28      N      0.448020000000     0.046230000000     0.086550000000    -0.193671   
N29      N      0.234060000000     0.977390000000     0.300820000000    -0.193648   
N30      N      0.348180000000     0.028540000000     0.202240000000    -0.194697   
N31      N      0.103100000000     0.998120000000     0.312590000000    -0.193808   
N32      N      0.986950000000     0.065610000000     0.224030000000    -0.193513   
N33      N      0.720160000000     0.473680000000     0.223720000000    -0.193654   
N34      N      0.604040000000     0.541090000000     0.312370000000    -0.193776   
N35      N      0.858950000000     0.510690000000     0.201990000000    -0.194774   
N36      N      0.973080000000     0.561780000000     0.300570000000    -0.193725   
N37      N      0.699790000000     0.554440000000     0.945940000000    -0.193967   
N38      N      0.759150000000     0.492750000000     0.086240000000    -0.193613   
N39      N      0.948020000000     0.485100000000     0.581930000000    -0.193994   
N40      N      0.505170000000     0.549230000000     0.441690000000    -0.194743   
N41      N      0.861510000000     0.499250000000     0.720730000000    -0.194095   
N42      N      0.745570000000     0.559710000000     0.813180000000    -0.19388    
N43      N      0.994950000000     0.480450000000     0.715430000000    -0.193789   
N44      N      0.610960000000     0.540770000000     0.808060000000    -0.194113   
N45      N      0.569580000000     0.854480000000     0.871570000000    -0.193299   
N46      N      0.637460000000     0.684420000000     0.871410000000    -0.193217   
N47      N      0.887340000000     0.354610000000     0.656820000000    -0.193765   
N48      N      0.819730000000     0.184260000000     0.656990000000    -0.193741   
N49      N      0.845540000000     0.039650000000     0.721020000000    -0.194087   
N50      N      0.961470000000     0.979210000000     0.813470000000    -0.193915   
N51      N      0.596080000000     0.998180000000     0.808340000000    -0.194152   
N52      N      0.712090000000     0.058480000000     0.715710000000    -0.19399    
N53      N      0.636600000000     0.854800000000     0.377340000000    -0.194636   
N54      N      0.570450000000     0.684280000000     0.377270000000    -0.194568   
N55      N      0.701910000000     0.989740000000     0.441930000000    -0.194629   
N56      N      0.759030000000     0.053780000000     0.582200000000    -0.193933   
N57      N      0.819130000000     0.354340000000     0.165280000000    -0.195494   
N58      N      0.887970000000     0.184810000000     0.165400000000    -0.195371   
N59      N      0.507310000000     0.984470000000     0.946240000000    -0.193949   
N60      N      0.948020000000     0.046240000000     0.086540000000    -0.193661   
N61      N      0.734060000000     0.977380000000     0.300820000000    -0.193664   
N62      N      0.848180000000     0.028540000000     0.202240000000    -0.194739   
N63      N      0.603100000000     0.998120000000     0.312590000000    -0.193775   
N64      N      0.486950000000     0.065620000000     0.224030000000    -0.19358    
O1       O      0.465870000000     0.075260000000     0.177090000000    -0.498949   
O2       O      0.438170000000     0.076930000000     0.215750000000    -0.487232   
O3       O      0.416840000000     0.042750000000     0.127950000000    -0.498838   
O4       O      0.369120000000     0.072270000000     0.172470000000    -0.507921   
O5       O      0.412230000000     0.138220000000     0.188960000000    -0.504163   
O6       O      0.397350000000     0.034160000000     0.192670000000    -0.494743   
O7       O      0.446620000000     0.086160000000     0.126540000000    -0.494009   
O8       O      0.397130000000     0.129760000000     0.143830000000    -0.504084   
O9       O      0.197690000000     0.993170000000     0.334470000000    -0.509828   
O10      O      0.205750000000     0.937650000000     0.328190000000    -0.489004   
O11      O      0.166270000000     0.986870000000     0.404880000000    -0.496108   
O12      O      0.133320000000     0.995420000000     0.354700000000    -0.488981   
O13      O      0.172390000000     0.893000000000     0.359960000000    -0.495061   
O14      O      0.139740000000     0.956900000000     0.319610000000    -0.510705   
O15      O      0.204250000000     0.955860000000     0.397970000000    -0.512261   
O16      O      0.135390000000     0.916350000000     0.380750000000    -0.511621   
O17      O      0.320500000000     0.122780000000     0.652350000000    -0.511218   
O18      O      0.281990000000     0.146380000000     0.669960000000    -0.494175   
O19      O      0.284730000000     0.046400000000     0.627040000000    -0.494593   
O20      O      0.323030000000     0.048330000000     0.674390000000    -0.489905   
O21      O      0.246350000000     0.099390000000     0.699120000000    -0.488844   
O22      O      0.306060000000     0.076220000000     0.712720000000    -0.51317    
O23      O      0.260540000000     0.094430000000     0.621870000000    -0.511089   
O24      O      0.249220000000     0.046320000000     0.682050000000    -0.512922   
O25      O      0.070190000000     0.915910000000     0.876640000000    -0.510282   
O26      O      0.031860000000     0.892290000000     0.858430000000    -0.493424   
O27      O      0.031380000000     0.993580000000     0.900650000000    -0.495787   
O28      O      0.073490000000     0.989290000000     0.854920000000    -0.491083   
O29      O      0.995860000000     0.938490000000     0.830180000000    -0.488066   
O30      O      0.055860000000     0.962730000000     0.816230000000    -0.514186   
O31      O      0.012480000000     0.942470000000     0.907980000000    -0.510092   
O32      O      0.998920000000     0.991840000000     0.846540000000    -0.513089   
O33      O      0.386560000000     0.416080000000     0.652110000000    -0.51098    
O34      O      0.425080000000     0.392520000000     0.669730000000    -0.494145   
O35      O      0.422300000000     0.492460000000     0.626760000000    -0.494799   
O36      O      0.384010000000     0.490540000000     0.674100000000    -0.489867   
O37      O      0.460720000000     0.439530000000     0.698840000000    -0.489023   
O38      O      0.401000000000     0.462710000000     0.712450000000    -0.513182   
O39      O      0.446530000000     0.444460000000     0.621600000000    -0.51099    
O40      O      0.457810000000     0.492600000000     0.681790000000    -0.513107   
O41      O      0.136870000000     0.622980000000     0.876420000000    -0.510431   
O42      O      0.175180000000     0.646630000000     0.858190000000    -0.493338   
O43      O      0.175690000000     0.545320000000     0.900370000000    -0.495354   
O44      O      0.133580000000     0.549610000000     0.854640000000    -0.491357   
O45      O      0.211180000000     0.600430000000     0.829880000000    -0.488114   
O46      O      0.151160000000     0.576230000000     0.815970000000    -0.514458   
O47      O      0.194600000000     0.596440000000     0.907690000000    -0.509923   
O48      O      0.208130000000     0.547070000000     0.846250000000    -0.513042   
O49      O      0.009470000000     0.545950000000     0.334180000000    -0.509926   
O50      O      0.001330000000     0.601480000000     0.328030000000    -0.489151   
O51      O      0.040850000000     0.552220000000     0.404700000000    -0.495841   
O52      O      0.073740000000     0.543640000000     0.354430000000    -0.488881   
O53      O      0.034700000000     0.646100000000     0.359810000000    -0.495005   
O54      O      0.067450000000     0.582370000000     0.319490000000    -0.510621   
O55      O      0.002810000000     0.583130000000     0.397740000000    -0.512419   
O56      O      0.071670000000     0.622740000000     0.380670000000    -0.511285   
O57      O      0.241290000000     0.464270000000     0.176770000000    -0.498817   
O58      O      0.268900000000     0.462050000000     0.215490000000    -0.487108   
O59      O      0.290310000000     0.496340000000     0.127650000000    -0.498809   
O60      O      0.338020000000     0.466990000000     0.172170000000    -0.507848   
O61      O      0.310010000000     0.409370000000     0.143650000000    -0.504074   
O62      O      0.309770000000     0.505000000000     0.192480000000    -0.494898   
O63      O      0.260550000000     0.452900000000     0.126280000000    -0.493796   
O64      O      0.294850000000     0.400970000000     0.188760000000    -0.504102   
O65      O      0.965870000000     0.075240000000     0.177090000000    -0.498886   
O66      O      0.938170000000     0.076930000000     0.215750000000    -0.487203   
O67      O      0.916840000000     0.042750000000     0.127940000000    -0.498869   
O68      O      0.869120000000     0.072260000000     0.172470000000    -0.508041   
O69      O      0.912230000000     0.138220000000     0.188960000000    -0.504076   
O70      O      0.897350000000     0.034160000000     0.192670000000    -0.494897   
O71      O      0.946620000000     0.086160000000     0.126540000000    -0.493891   
O72      O      0.897130000000     0.129760000000     0.143830000000    -0.503959   
O73      O      0.697690000000     0.993170000000     0.334470000000    -0.509798   
O74      O      0.705750000000     0.937650000000     0.328190000000    -0.488965   
O75      O      0.666270000000     0.986870000000     0.404880000000    -0.496061   
O76      O      0.633310000000     0.995410000000     0.354700000000    -0.488993   
O77      O      0.672390000000     0.892990000000     0.359960000000    -0.494857   
O78      O      0.639740000000     0.956900000000     0.319610000000    -0.510792   
O79      O      0.704250000000     0.955850000000     0.397970000000    -0.512268   
O80      O      0.635380000000     0.916340000000     0.380750000000    -0.511288   
O81      O      0.820500000000     0.122780000000     0.652340000000    -0.511054   
O82      O      0.781990000000     0.146380000000     0.669950000000    -0.494028   
O83      O      0.784730000000     0.046400000000     0.627040000000    -0.494673   
O84      O      0.823030000000     0.048330000000     0.674390000000    -0.489961   
O85      O      0.746350000000     0.099380000000     0.699120000000    -0.488995   
O86      O      0.806060000000     0.076220000000     0.712720000000    -0.513167   
O87      O      0.760540000000     0.094430000000     0.621860000000    -0.510939   
O88      O      0.749220000000     0.046310000000     0.682050000000    -0.512923   
O89      O      0.570190000000     0.915910000000     0.876640000000    -0.510198   
O90      O      0.531860000000     0.892290000000     0.858430000000    -0.493375   
O91      O      0.531390000000     0.993580000000     0.900650000000    -0.495672   
O92      O      0.573490000000     0.989290000000     0.854930000000    -0.491083   
O93      O      0.495860000000     0.938480000000     0.830180000000    -0.488102   
O94      O      0.555860000000     0.962730000000     0.816240000000    -0.514333   
O95      O      0.512480000000     0.942470000000     0.907980000000    -0.510011   
O96      O      0.498920000000     0.991840000000     0.846540000000    -0.51328    
O97      O      0.886560000000     0.416080000000     0.652110000000    -0.511252   
O98      O      0.925080000000     0.392520000000     0.669730000000    -0.494109   
O99      O      0.922300000000     0.492460000000     0.626760000000    -0.494847   
O100     O      0.884000000000     0.490540000000     0.674100000000    -0.489759   
O101     O      0.960710000000     0.439520000000     0.698830000000    -0.488917   
O102     O      0.901000000000     0.462700000000     0.712450000000    -0.513163   
O103     O      0.946520000000     0.444460000000     0.621600000000    -0.511034   
O104     O      0.957810000000     0.492600000000     0.681790000000    -0.512828   
O105     O      0.636870000000     0.622980000000     0.876430000000    -0.510164   
O106     O      0.675180000000     0.646620000000     0.858190000000    -0.493436   
O107     O      0.675690000000     0.545320000000     0.900370000000    -0.495381   
O108     O      0.633570000000     0.549610000000     0.854650000000    -0.490841   
O109     O      0.711180000000     0.600430000000     0.829890000000    -0.488325   
O110     O      0.651170000000     0.576230000000     0.815970000000    -0.514309   
O111     O      0.694600000000     0.596440000000     0.907700000000    -0.509879   
O112     O      0.708130000000     0.547070000000     0.846250000000    -0.513175   
O113     O      0.509470000000     0.545950000000     0.334180000000    -0.509878   
O114     O      0.501330000000     0.601480000000     0.328030000000    -0.488973   
O115     O      0.540850000000     0.552220000000     0.404690000000    -0.495942   
O116     O      0.573740000000     0.543630000000     0.354430000000    -0.48888    
O117     O      0.534690000000     0.646090000000     0.359800000000    -0.494792   
O118     O      0.567450000000     0.582360000000     0.319490000000    -0.510746   
O119     O      0.502810000000     0.583120000000     0.397740000000    -0.512264   
O120     O      0.571670000000     0.622740000000     0.380660000000    -0.511136   
O121     O      0.741300000000     0.464260000000     0.176780000000    -0.499105   
O122     O      0.768900000000     0.462050000000     0.215490000000    -0.487191   
O123     O      0.790310000000     0.496340000000     0.127650000000    -0.498938   
O124     O      0.838020000000     0.466990000000     0.172180000000    -0.508206   
O125     O      0.810020000000     0.409370000000     0.143660000000    -0.504339   
O126     O      0.809780000000     0.505000000000     0.192480000000    -0.495151   
O127     O      0.760560000000     0.452890000000     0.126280000000    -0.493862   
O128     O      0.794860000000     0.400970000000     0.188760000000    -0.504187   


