data_structure

_audit_creation_method RASPA-1.0
_audit_creation_date 2023-5-23
_audit_author_name 'Poobodin Mano'

_cell_length_a    73.0249
_cell_length_b    72.8659
_cell_length_c    72.8069
_cell_angle_alpha 89.9998
_cell_angle_beta  89.9999
_cell_angle_gamma 90.001
_cell_volume      387407

_symmetry_cell_setting          triclinic
_symmetry_space_group_name_Hall 'P 1'
_symmetry_space_group_name_H-M  'P 1'
_symmetry_Int_Tables_number     1

_symmetry_equiv_pos_as_xyz 'x,y,z'

loop_
_atom_site_label
_atom_site_type_symbol
_atom_site_fract_x
_atom_site_fract_y
_atom_site_fract_z
_atom_site_charge
C1       C      0.559300000000     0.744680000000     0.894820000000     0.411093   
C2       C      0.621650000000     0.721220000000     0.890310000000     0.411321   
C3       C      0.604580000000     0.772510000000     0.872590000000     0.411536   
C4       C      0.598680000000     0.748470000000     0.934790000000     0.412449   
C5       C      0.556850000000     0.745380000000     0.111410000000     0.411503   
C6       C      0.618550000000     0.719580000000     0.111680000000     0.410376   
C7       C      0.596220000000     0.748170000000     0.069680000000     0.411966   
C8       C      0.601530000000     0.772450000000     0.131540000000     0.410686   
C9       C      0.424870000000     0.742830000000     0.897950000000     0.413556   
C10      C      0.363370000000     0.719450000000     0.891580000000     0.41219    
C11      C      0.380800000000     0.748170000000     0.935940000000     0.409616   
C12      C      0.381660000000     0.772210000000     0.874280000000     0.409538   
C13      C      0.422410000000     0.745790000000     0.112580000000     0.412108   
C14      C      0.360360000000     0.721000000000     0.112800000000     0.41083    
C15      C      0.377490000000     0.772860000000     0.133180000000     0.411674   
C16      C      0.385250000000     0.750930000000     0.070620000000     0.409677   
C17      C      0.732970000000     0.431140000000     0.894110000000     0.408676   
C18      C      0.714990000000     0.369390000000     0.884750000000     0.413752   
C19      C      0.768390000000     0.390670000000     0.870600000000     0.411073   
C20      C      0.742520000000     0.388850000000     0.931110000000     0.413262   
C21      C      0.738600000000     0.429590000000     0.106150000000     0.411619   
C22      C      0.714450000000     0.367300000000     0.109320000000     0.410098   
C23      C      0.742220000000     0.388730000000     0.065850000000     0.411604   
C24      C      0.766350000000     0.386930000000     0.128530000000     0.410226   
C25      C      0.729040000000     0.564570000000     0.891630000000     0.414804   
C26      C      0.714750000000     0.624430000000     0.890040000000     0.415445   
C27      C      0.753640000000     0.603240000000     0.930430000000     0.414963   
C28      C      0.768750000000     0.604530000000     0.870970000000     0.415036   
C29      C      0.738880000000     0.564140000000     0.106080000000     0.412975   
C30      C      0.714100000000     0.625090000000     0.104390000000     0.411285   
C31      C      0.767140000000     0.609550000000     0.125690000000     0.413892   
C32      C      0.749110000000     0.601070000000     0.063860000000     0.408205   
C33      C      0.557420000000     0.890190000000     0.253220000000     0.411487   
C34      C      0.620330000000     0.887270000000     0.276250000000     0.41116    
C35      C      0.602220000000     0.867690000000     0.226390000000     0.410797   
C36      C      0.596030000000     0.930970000000     0.248080000000     0.410703   
C37      C      0.555490000000     0.108240000000     0.248920000000     0.411635   
C38      C      0.617810000000     0.109290000000     0.272420000000     0.41014    
C39      C      0.594360000000     0.065910000000     0.245190000000     0.411757   
C40      C      0.598630000000     0.127790000000     0.220070000000     0.411072   
C41      C      0.421370000000     0.110610000000     0.252290000000     0.411711   
C42      C      0.359170000000     0.109710000000     0.276420000000     0.412457   
C43      C      0.374310000000     0.127740000000     0.224600000000     0.409277   
C44      C      0.384010000000     0.066710000000     0.249040000000     0.411384   
C45      C      0.422930000000     0.889920000000     0.253460000000     0.411077   
C46      C      0.361770000000     0.889050000000     0.279730000000     0.40946    
C47      C      0.383830000000     0.931710000000     0.250760000000     0.412716   
C48      C      0.378400000000     0.869680000000     0.226580000000     0.411183   
C49      C      0.427380000000     0.256610000000     0.894060000000     0.409391   
C50      C      0.368560000000     0.271200000000     0.896760000000     0.412327   
C51      C      0.388870000000     0.216330000000     0.873970000000     0.418756   
C52      C      0.388680000000     0.230900000000     0.933870000000     0.404785   
C53      C      0.422710000000     0.252850000000     0.105800000000     0.411503   
C54      C      0.362640000000     0.273320000000     0.110780000000     0.41331    
C55      C      0.382070000000     0.235430000000     0.066960000000     0.418899   
C56      C      0.377950000000     0.221300000000     0.128670000000     0.415632   
C57      C      0.560110000000     0.258970000000     0.886400000000     0.416204   
C58      C      0.619330000000     0.275480000000     0.882960000000     0.411628   
C59      C      0.601460000000     0.238780000000     0.926680000000     0.417302   
C60      C      0.602010000000     0.220680000000     0.867440000000     0.412538   
C61      C      0.556540000000     0.251580000000     0.097770000000     0.410873   
C62      C      0.619510000000     0.272120000000     0.104760000000     0.410429   
C63      C      0.599050000000     0.222170000000     0.123900000000     0.411698   
C64      C      0.597360000000     0.242500000000     0.060450000000     0.411546   
C65      C      0.092120000000     0.428830000000     0.253540000000     0.411683   
C66      C      0.098620000000     0.366260000000     0.276300000000     0.411213   
C67      C      0.053950000000     0.385340000000     0.249560000000     0.410002   
C68      C      0.116240000000     0.385090000000     0.225250000000     0.410551   
C69      C      0.880830000000     0.433690000000     0.257870000000     0.411813   
C70      C      0.875380000000     0.371690000000     0.280390000000     0.413886   
C71      C      0.858670000000     0.392580000000     0.226620000000     0.407152   
C72      C      0.919740000000     0.391930000000     0.251570000000     0.410066   
C73      C      0.881760000000     0.567340000000     0.259970000000     0.414784   
C74      C      0.882520000000     0.626780000000     0.274570000000     0.41414    
C75      C      0.922040000000     0.605180000000     0.235280000000     0.414047   
C76      C      0.862660000000     0.607650000000     0.220080000000     0.415054   
C77      C      0.094870000000     0.563570000000     0.251670000000     0.413509   
C78      C      0.095960000000     0.625020000000     0.276550000000     0.410947   
C79      C      0.118160000000     0.607950000000     0.224590000000     0.412708   
C80      C      0.055040000000     0.601720000000     0.241750000000     0.408822   
C81      C      0.253640000000     0.559770000000     0.897850000000     0.409101   
C82      C      0.270190000000     0.622890000000     0.888910000000     0.41314    
C83      C      0.218870000000     0.599230000000     0.872670000000     0.411432   
C84      C      0.243430000000     0.601590000000     0.934240000000     0.41308    
C85      C      0.241720000000     0.562190000000     0.109960000000     0.411237   
C86      C      0.266800000000     0.624360000000     0.112940000000     0.410142   
C87      C      0.240460000000     0.602620000000     0.068990000000     0.411919   
C88      C      0.214350000000     0.606450000000     0.130600000000     0.409784   
C89      C      0.240190000000     0.427480000000     0.110510000000     0.411856   
C90      C      0.265730000000     0.366320000000     0.110470000000     0.411124   
C91      C      0.213340000000     0.383070000000     0.132090000000     0.413781   
C92      C      0.231970000000     0.389880000000     0.069080000000     0.409664   
C93      C      0.258200000000     0.426350000000     0.897620000000     0.41442    
C94      C      0.273980000000     0.367150000000     0.897820000000     0.415479   
C95      C      0.232070000000     0.387220000000     0.935690000000     0.415048   
C96      C      0.219740000000     0.385670000000     0.876120000000     0.413024   
C97      C      0.889770000000     0.740100000000     0.567380000000     0.412589   
C98      C      0.882350000000     0.717030000000     0.629730000000     0.412444   
C99      C      0.926620000000     0.745080000000     0.611220000000     0.4096     
C100     C      0.864170000000     0.768190000000     0.610150000000     0.409656   
C101     C      0.103470000000     0.743220000000     0.569930000000     0.411851   
C102     C      0.103160000000     0.718130000000     0.631860000000     0.411001   
C103     C      0.122650000000     0.770580000000     0.615570000000     0.411558   
C104     C      0.060890000000     0.748020000000     0.607090000000     0.40969    
C105     C      0.888650000000     0.744000000000     0.432530000000     0.41108    
C106     C      0.883010000000     0.722160000000     0.369510000000     0.411046   
C107     C      0.864610000000     0.772440000000     0.389060000000     0.41121    
C108     C      0.927520000000     0.749080000000     0.392400000000     0.412261   
C109     C      0.103030000000     0.743920000000     0.435140000000     0.411147   
C110     C      0.103800000000     0.718950000000     0.372970000000     0.41021    
C111     C      0.061960000000     0.747930000000     0.395250000000     0.411836   
C112     C      0.124100000000     0.771470000000     0.391460000000     0.410669   
C113     C      0.102420000000     0.423980000000     0.751420000000     0.411799   
C114     C      0.108250000000     0.360950000000     0.729180000000     0.41043    
C115     C      0.126160000000     0.380620000000     0.779580000000     0.411345   
C116     C      0.063390000000     0.383580000000     0.755800000000     0.411492   
C117     C      0.889370000000     0.426110000000     0.750380000000     0.411617   
C118     C      0.885410000000     0.364100000000     0.726070000000     0.411042   
C119     C      0.928840000000     0.385220000000     0.754380000000     0.411201   
C120     C      0.866350000000     0.384010000000     0.778450000000     0.41069    
C121     C      0.887960000000     0.560940000000     0.749440000000     0.411772   
C122     C      0.882190000000     0.623770000000     0.726330000000     0.410753   
C123     C      0.864270000000     0.605050000000     0.776500000000     0.410966   
C124     C      0.927070000000     0.601450000000     0.753170000000     0.411059   
C125     C      0.100960000000     0.558830000000     0.749640000000     0.411733   
C126     C      0.105170000000     0.621100000000     0.725210000000     0.411033   
C127     C      0.061540000000     0.599880000000     0.752640000000     0.411574   
C128     C      0.123330000000     0.601400000000     0.777790000000     0.410483   
C129     C      0.249230000000     0.105340000000     0.434100000000     0.417169   
C130     C      0.266350000000     0.107710000000     0.373430000000     0.415329   
C131     C      0.232960000000     0.063060000000     0.394400000000     0.415276   
C132     C      0.213240000000     0.122870000000     0.389450000000     0.414143   
C133     C      0.249040000000     0.888020000000     0.440830000000     0.412022   
C134     C      0.268830000000     0.887620000000     0.377250000000     0.411546   
C135     C      0.219290000000     0.866200000000     0.396150000000     0.411795   
C136     C      0.238740000000     0.929280000000     0.403660000000     0.411612   
C137     C      0.253500000000     0.880870000000     0.574270000000     0.410414   
C138     C      0.271440000000     0.885140000000     0.633430000000     0.410149   
C139     C      0.234180000000     0.926040000000     0.609460000000     0.417607   
C140     C      0.216460000000     0.866430000000     0.616720000000     0.418489   
C141     C      0.248270000000     0.099890000000     0.568220000000     0.412559   
C142     C      0.271110000000     0.103420000000     0.630490000000     0.411775   
C143     C      0.219720000000     0.123040000000     0.611260000000     0.411732   
C144     C      0.239750000000     0.059940000000     0.606690000000     0.409913   
C145     C      0.098770000000     0.247330000000     0.433400000000     0.411856   
C146     C      0.101910000000     0.269920000000     0.370040000000     0.41172    
C147     C      0.120040000000     0.219160000000     0.388620000000     0.41077    
C148     C      0.058060000000     0.243680000000     0.394850000000     0.411808   
C149     C      0.881840000000     0.246290000000     0.433360000000     0.410572   
C150     C      0.881350000000     0.273650000000     0.372350000000     0.409308   
C151     C      0.923440000000     0.244580000000     0.394940000000     0.412977   
C152     C      0.861850000000     0.220410000000     0.386520000000     0.411867   
C153     C      0.885170000000     0.245040000000     0.568220000000     0.411486   
C154     C      0.885680000000     0.268880000000     0.630780000000     0.41113    
C155     C      0.865560000000     0.217210000000     0.612940000000     0.411703   
C156     C      0.927700000000     0.239090000000     0.605280000000     0.409003   
C157     C      0.099410000000     0.247270000000     0.568280000000     0.412729   
C158     C      0.106210000000     0.268860000000     0.631260000000     0.412137   
C159     C      0.061920000000     0.241600000000     0.611540000000     0.410251   
C160     C      0.123880000000     0.217610000000     0.610810000000     0.41033    
C161     C      0.740360000000     0.885450000000     0.567110000000     0.411622   
C162     C      0.716260000000     0.879550000000     0.629340000000     0.409037   
C163     C      0.766890000000     0.861090000000     0.610440000000     0.410835   
C164     C      0.745110000000     0.924320000000     0.608570000000     0.411756   
C165     C      0.744510000000     0.100060000000     0.562020000000     0.410072   
C166     C      0.719540000000     0.101080000000     0.623340000000     0.40965    
C167     C      0.748160000000     0.058770000000     0.602320000000     0.414075   
C168     C      0.772810000000     0.120360000000     0.607450000000     0.412193   
C169     C      0.740460000000     0.103290000000     0.427140000000     0.411081   
C170     C      0.715650000000     0.107950000000     0.364680000000     0.410232   
C171     C      0.766120000000     0.126780000000     0.382030000000     0.410628   
C172     C      0.743520000000     0.063690000000     0.387300000000     0.41079    
C173     C      0.741110000000     0.888400000000     0.432130000000     0.411452   
C174     C      0.716070000000     0.885410000000     0.370610000000     0.410582   
C175     C      0.744190000000     0.928910000000     0.391010000000     0.411412   
C176     C      0.769450000000     0.867400000000     0.388580000000     0.410542   
C177     C      0.430040000000     0.888400000000     0.752160000000     0.411422   
C178     C      0.367470000000     0.886850000000     0.727670000000     0.411826   
C179     C      0.385110000000     0.866730000000     0.778480000000     0.410466   
C180     C      0.392510000000     0.929600000000     0.756290000000     0.410456   
C181     C      0.431010000000     0.100690000000     0.739530000000     0.411014   
C182     C      0.368860000000     0.108300000000     0.722400000000     0.415222   
C183     C      0.388400000000     0.063940000000     0.752380000000     0.410325   
C184     C      0.391180000000     0.124710000000     0.775220000000     0.409483   
C185     C      0.564530000000     0.891450000000     0.753590000000     0.410288   
C186     C      0.624930000000     0.890410000000     0.727280000000     0.408123   
C187     C      0.603950000000     0.932660000000     0.758300000000     0.412391   
C188     C      0.609620000000     0.870500000000     0.781000000000     0.413503   
C189     C      0.564060000000     0.102740000000     0.733220000000     0.407986   
C190     C      0.623270000000     0.106360000000     0.716900000000     0.419212   
C191     C      0.602770000000     0.125620000000     0.771970000000     0.410772   
C192     C      0.604040000000     0.066260000000     0.757790000000     0.414611   
C193     C      0.618480000000     0.978550000000     0.772930000000    -0.0866989  
C194     C      0.605750000000     0.989540000000     0.763690000000     0.0359411  
C195     C      0.592590000000     0.981120000000     0.752580000000    -0.0873954  
C196     C      0.592390000000     0.962090000000     0.750770000000     0.0745208  
C197     C      0.617620000000     0.959440000000     0.771150000000     0.0737826  
C198     C      0.606270000000     0.009780000000     0.765020000000     0.035975   
C199     C      0.590410000000     0.019560000000     0.769520000000    -0.0876935  
C200     C      0.590280000000     0.038660000000     0.768160000000     0.0750884  
C201     C      0.621340000000     0.038630000000     0.758600000000     0.0736748  
C202     C      0.622050000000     0.019510000000     0.760150000000    -0.0867603  
C203     C      0.475810000000     0.115270000000     0.722220000000    -0.0864568  
C204     C      0.487220000000     0.101740000000     0.729700000000     0.035623   
C205     C      0.479270000000     0.087640000000     0.740040000000    -0.0868155  
C206     C      0.460430000000     0.087470000000     0.743040000000     0.0733407  
C207     C      0.456910000000     0.114540000000     0.725300000000     0.0732039  
C208     C      0.507410000000     0.102680000000     0.727770000000     0.0356811  
C209     C      0.517580000000     0.086820000000     0.724020000000    -0.0871394  
C210     C      0.536660000000     0.087340000000     0.724900000000     0.0742814  
C211     C      0.535900000000     0.119050000000     0.732200000000     0.0727156  
C212     C      0.516790000000     0.119070000000     0.731270000000    -0.0862386  
C213     C      0.396910000000     0.977510000000     0.742430000000    -0.0870434  
C214     C      0.388550000000     0.986680000000     0.757110000000     0.0357987  
C215     C      0.382140000000     0.976280000000     0.771980000000    -0.0858653  
C216     C      0.383770000000     0.957130000000     0.771680000000     0.0730753  
C217     C      0.398300000000     0.958460000000     0.742580000000     0.0741804  
C218     C      0.386650000000     0.006980000000     0.756610000000     0.0359059  
C219     C      0.390160000000     0.017760000000     0.772160000000    -0.086006   
C220     C      0.390040000000     0.036920000000     0.770720000000     0.0740332  
C221     C      0.382220000000     0.034900000000     0.739170000000     0.0741523  
C222     C      0.382150000000     0.015810000000     0.740130000000    -0.0868916  
C223     C      0.477260000000     0.884950000000     0.768210000000    -0.0866957  
C224     C      0.487130000000     0.886100000000     0.751720000000     0.0358603  
C225     C      0.477250000000     0.886840000000     0.735190000000    -0.0855711  
C226     C      0.458080000000     0.887020000000     0.735500000000     0.0737253  
C227     C      0.458190000000     0.885540000000     0.768020000000     0.0746341  
C228     C      0.507520000000     0.887260000000     0.752000000000     0.0356945  
C229     C      0.516470000000     0.896380000000     0.766400000000    -0.0866536  
C230     C      0.535500000000     0.897390000000     0.766760000000     0.0746316  
C231     C      0.537390000000     0.881090000000     0.738650000000     0.0729676  
C232     C      0.518280000000     0.879550000000     0.738000000000    -0.0853346  
C233     C      0.732680000000     0.977040000000     0.398510000000    -0.0869304  
C234     C      0.745250000000     0.986060000000     0.387100000000     0.035906   
C235     C      0.757790000000     0.975370000000     0.377140000000    -0.0854942  
C236     C      0.757380000000     0.956190000000     0.378620000000     0.0731907  
C237     C      0.732510000000     0.957970000000     0.399470000000     0.0749431  
C238     C      0.745010000000     0.006470000000     0.385780000000     0.0357947  
C239     C      0.728360000000     0.015990000000     0.386760000000    -0.0868239  
C240     C      0.728190000000     0.035090000000     0.387100000000     0.0744783  
C241     C      0.760520000000     0.035910000000     0.384320000000     0.0731979  
C242     C      0.761230000000     0.016700000000     0.384240000000    -0.0855063  
C243     C      0.645150000000     0.102840000000     0.671820000000    -0.0863295  
C244     C      0.662980000000     0.108710000000     0.675870000000     0.035946   
C245     C      0.666730000000     0.115040000000     0.693650000000    -0.0869422  
C246     C      0.653100000000     0.114630000000     0.707070000000     0.0746691  
C247     C      0.631810000000     0.102680000000     0.685600000000     0.0734802  
C248     C      0.677850000000     0.107330000000     0.662000000000     0.0358603  
C249     C      0.695310000000     0.101300000000     0.667220000000    -0.0867608  
C250     C      0.709090000000     0.099460000000     0.654110000000     0.0744185  
C251     C      0.688890000000     0.109480000000     0.630660000000     0.0735218  
C252     C      0.674740000000     0.111480000000     0.643460000000    -0.0860471  
C253     C      0.755080000000     0.093110000000     0.513530000000    -0.0866988  
C254     C      0.741640000000     0.103760000000     0.504870000000     0.0357895  
C255     C      0.728970000000     0.113140000000     0.515920000000    -0.0855921  
C256     C      0.730060000000     0.111790000000     0.535090000000     0.0727577  
C257     C      0.755890000000     0.092250000000     0.532620000000     0.0744079  
C258     C      0.741060000000     0.104900000000     0.484430000000     0.0358265  
C259     C      0.757360000000     0.104700000000     0.474280000000    -0.0869307  
C260     C      0.756820000000     0.104300000000     0.455170000000     0.0744945  
C261     C      0.724390000000     0.105430000000     0.455560000000     0.0730988  
C262     C      0.724410000000     0.105550000000     0.474810000000    -0.0854855  
C263     C      0.695090000000     0.876080000000     0.674600000000    -0.0866096  
C264     C      0.676540000000     0.878700000000     0.670380000000     0.0358759  
C265     C      0.671460000000     0.879620000000     0.651810000000    -0.0856783  
C266     C      0.684880000000     0.878910000000     0.638110000000     0.0737112  
C267     C      0.708120000000     0.875710000000     0.660610000000     0.0740663  
C268     C      0.662840000000     0.881470000000     0.685310000000     0.0357368  
C269     C      0.644800000000     0.875040000000     0.683690000000    -0.0855605  
C270     C      0.632190000000     0.878250000000     0.697810000000     0.0731541  
C271     C      0.654830000000     0.893850000000     0.715140000000     0.0739051  
C272     C      0.667680000000     0.891070000000     0.701280000000    -0.0863967  
C273     C      0.755940000000     0.886860000000     0.519530000000    -0.086905   
C274     C      0.739590000000     0.884130000000     0.509810000000     0.0358448  
C275     C      0.723510000000     0.880910000000     0.519880000000    -0.0854108  
C276     C      0.724000000000     0.880990000000     0.539120000000     0.0731597  
C277     C      0.755860000000     0.887200000000     0.538640000000     0.0746601  
C278     C      0.739480000000     0.885240000000     0.489360000000     0.03584    
C279     C      0.751180000000     0.897540000000     0.480330000000    -0.0867408  
C280     C      0.751580000000     0.898230000000     0.461240000000     0.0748628  
C281     C      0.728500000000     0.875430000000     0.459430000000     0.0731629  
C282     C      0.727950000000     0.874160000000     0.478630000000    -0.0854425  
C283     C      0.731080000000     0.972330000000     0.609920000000    -0.0870814  
C284     C      0.747960000000     0.981430000000     0.609360000000     0.0357591  
C285     C      0.764020000000     0.970880000000     0.609940000000    -0.0856026  
C286     C      0.762900000000     0.951690000000     0.610270000000     0.0728887  
C287     C      0.730470000000     0.953240000000     0.610060000000     0.0740331  
C288     C      0.748550000000     0.001750000000     0.607390000000     0.0360467  
C289     C      0.735760000000     0.010670000000     0.596160000000    -0.0869369  
C290     C      0.735910000000     0.029710000000     0.594650000000     0.074857   
C291     C      0.761470000000     0.031560000000     0.614660000000     0.073911   
C292     C      0.761640000000     0.012430000000     0.616580000000    -0.0860144  
C293     C      0.817490000000     0.142880000000     0.610490000000    -0.0855293  
C294     C      0.812500000000     0.160680000000     0.615940000000     0.0355913  
C295     C      0.793960000000     0.164130000000     0.619660000000    -0.0863236  
C296     C      0.780930000000     0.150400000000     0.616980000000     0.0736793  
C297     C      0.804100000000     0.129330000000     0.608340000000     0.0730846  
C298     C      0.826290000000     0.175780000000     0.616710000000     0.0358833  
C299     C      0.844630000000     0.172340000000     0.621380000000    -0.0857231  
C300     C      0.857570000000     0.186460000000     0.620480000000     0.073935   
C301     C      0.834590000000     0.207600000000     0.611510000000     0.0744159  
C302     C      0.821380000000     0.193780000000     0.611950000000    -0.0862813  
C303     C      0.975830000000     0.250270000000     0.597680000000    -0.0864625  
C304     C      0.984660000000     0.238030000000     0.609610000000     0.0354002  
C305     C      0.973920000000     0.225380000000     0.619350000000    -0.0855173  
C306     C      0.954840000000     0.225560000000     0.617420000000     0.0730397  
C307     C      0.956810000000     0.250180000000     0.596220000000     0.073637   
C308     C      0.004920000000     0.238800000000     0.611850000000     0.0362252  
C309     C      0.015440000000     0.222800000000     0.613750000000    -0.0857124  
C310     C      0.034580000000     0.223980000000     0.614390000000     0.0736178  
C311     C      0.033060000000     0.256380000000     0.611950000000     0.0746816  
C312     C      0.014010000000     0.255740000000     0.611490000000    -0.0869623  
C313     C      0.809500000000     0.149140000000     0.370280000000    -0.0857156  
C314     C      0.806660000000     0.166850000000     0.377330000000     0.0359209  
C315     C      0.789510000000     0.170940000000     0.384960000000    -0.0864644  
C316     C      0.775940000000     0.157520000000     0.385800000000     0.0745214  
C317     C      0.795630000000     0.135940000000     0.371540000000     0.0736274  
C318     C      0.821610000000     0.180790000000     0.377640000000     0.0356516  
C319     C      0.839870000000     0.175650000000     0.380780000000    -0.0855176  
C320     C      0.853360000000     0.189100000000     0.383000000000     0.0732779  
C321     C      0.831330000000     0.212590000000     0.378640000000     0.0736186  
C322     C      0.817600000000     0.199550000000     0.376020000000    -0.086487   
C323     C      0.887650000000     0.231980000000     0.481040000000    -0.0864852  
C324     C      0.879610000000     0.246550000000     0.490680000000     0.0357049  
C325     C      0.872000000000     0.261050000000     0.480510000000    -0.0853285  
C326     C      0.872700000000     0.260750000000     0.461280000000     0.0729729  
C327     C      0.887880000000     0.232010000000     0.461920000000     0.0744401  
C328     C      0.879590000000     0.246550000000     0.511180000000     0.0358848  
C329     C      0.878190000000     0.230000000000     0.520900000000    -0.0865985  
C330     C      0.879920000000     0.229830000000     0.539960000000     0.0743736  
C331     C      0.883120000000     0.262200000000     0.540430000000     0.0736991  
C332     C      0.881780000000     0.262840000000     0.521250000000    -0.0854512  
C333     C      0.010640000000     0.259500000000     0.395480000000    -0.0869623  
C334     C      0.000950000000     0.243030000000     0.393410000000     0.0362996  
C335     C      0.010950000000     0.226730000000     0.391240000000    -0.0858023  
C336     C      0.030120000000     0.227170000000     0.391490000000     0.0735871  
C337     C      0.029710000000     0.259400000000     0.395900000000     0.0745597  
C338     C      0.980550000000     0.243000000000     0.393910000000     0.0356156  
C339     C      0.971150000000     0.255120000000     0.405520000000    -0.0866875  
C340     C      0.952080000000     0.255470000000     0.405570000000     0.0746779  
C341     C      0.951100000000     0.231680000000     0.383380000000     0.0739165  
C342     C      0.970250000000     0.231110000000     0.382810000000    -0.0855865  
C343     C      0.103380000000     0.265260000000     0.480250000000    -0.0856615  
C344     C      0.101410000000     0.249140000000     0.490600000000     0.0358273  
C345     C      0.099590000000     0.232450000000     0.481220000000    -0.0869555  
C346     C      0.098950000000     0.232160000000     0.462120000000     0.0743508  
C347     C      0.102870000000     0.264440000000     0.461020000000     0.0731881  
C348     C      0.100590000000     0.249510000000     0.511030000000     0.0356156  
C349     C      0.111770000000     0.261210000000     0.521460000000    -0.0855535  
C350     C      0.111080000000     0.260550000000     0.540690000000     0.072462   
C351     C      0.088380000000     0.237310000000     0.539420000000     0.0737842  
C352     C      0.088590000000     0.237730000000     0.520320000000    -0.0868967  
C353     C      0.168880000000     0.196300000000     0.615850000000    -0.086363   
C354     C      0.164500000000     0.177550000000     0.615420000000     0.035667   
C355     C      0.145920000000     0.172640000000     0.614470000000    -0.0853421  
C356     C      0.132420000000     0.186230000000     0.613520000000     0.073077   
C357     C      0.155100000000     0.209470000000     0.614410000000     0.0741921  
C358     C      0.179250000000     0.163350000000     0.615200000000     0.0356734  
C359     C      0.196170000000     0.167010000000     0.606800000000    -0.086368   
C360     C      0.209690000000     0.153530000000     0.606140000000     0.0744387  
C361     C      0.190290000000     0.132540000000     0.621590000000     0.0734338  
C362     C      0.176550000000     0.145860000000     0.622870000000    -0.0854332  
C363     C      0.295760000000     0.101910000000     0.674150000000    -0.0862882  
C364     C      0.312170000000     0.110830000000     0.669660000000     0.0354601  
C365     C      0.314220000000     0.117760000000     0.651800000000    -0.0859047  
C366     C      0.300250000000     0.115370000000     0.638890000000     0.0728347  
C367     C      0.282070000000     0.099850000000     0.660940000000     0.073016   
C368     C      0.327290000000     0.112080000000     0.683350000000     0.0360924  
C369     C      0.323520000000     0.114620000000     0.702070000000    -0.0865544  
C370     C      0.337690000000     0.113890000000     0.714930000000     0.0738501  
C371     C      0.359420000000     0.109220000000     0.691200000000     0.0748896  
C372     C      0.345570000000     0.109740000000     0.677970000000    -0.0864352  
C373     C      0.294380000000     0.879330000000     0.677600000000    -0.0867503  
C374     C      0.312820000000     0.881570000000     0.672750000000     0.0356187  
C375     C      0.317150000000     0.883900000000     0.654120000000    -0.085561   
C376     C      0.303150000000     0.884590000000     0.641000000000     0.0722208  
C377     C      0.280790000000     0.880300000000     0.664200000000     0.074468   
C378     C      0.327230000000     0.882360000000     0.687210000000     0.0356689  
C379     C      0.323590000000     0.890970000000     0.704030000000    -0.0866748  
C380     C      0.337140000000     0.892020000000     0.717450000000     0.0738904  
C381     C      0.358070000000     0.876350000000     0.698130000000     0.0729355  
C382     C      0.344730000000     0.874930000000     0.684380000000    -0.085663   
C383     C      0.230610000000     0.972970000000     0.592380000000    -0.0874468  
C384     C      0.230590000000     0.983000000000     0.608770000000     0.0356234  
C385     C      0.229930000000     0.973480000000     0.625460000000    -0.0865925  
C386     C      0.230450000000     0.954280000000     0.625490000000     0.0725601  
C387     C      0.230870000000     0.953840000000     0.592920000000     0.0736241  
C388     C      0.232670000000     0.003210000000     0.608320000000     0.0356356  
C389     C      0.246630000000     0.011110000000     0.597790000000    -0.0872324  
C390     C      0.248840000000     0.030100000000     0.597560000000     0.0737611  
C391     C      0.223490000000     0.033770000000     0.617610000000     0.0729896  
C392     C      0.221090000000     0.014720000000     0.618420000000    -0.0862599  
C393     C      0.237900000000     0.882370000000     0.489400000000    -0.0868751  
C394     C      0.255280000000     0.880180000000     0.497230000000     0.0357904  
C395     C      0.270640000000     0.880700000000     0.485710000000    -0.0862062  
C396     C      0.268350000000     0.883200000000     0.466780000000     0.0732863  
C397     C      0.236140000000     0.885060000000     0.470530000000     0.0741683  
C398     C      0.257080000000     0.878060000000     0.517420000000     0.035925   
C399     C      0.269660000000     0.888620000000     0.527390000000    -0.0863805  
C400     C      0.269030000000     0.888600000000     0.546600000000     0.0744474  
C401     C      0.244880000000     0.866850000000     0.546200000000     0.0738465  
C402     C      0.245070000000     0.866590000000     0.527060000000    -0.0868678  
C403     C      0.140700000000     0.174660000000     0.377620000000    -0.0857824  
C404     C      0.158910000000     0.177580000000     0.383030000000     0.0358535  
C405     C      0.163790000000     0.195000000000     0.389590000000    -0.0865508  
C406     C      0.150700000000     0.208840000000     0.390850000000     0.0744057  
C407     C      0.127870000000     0.188850000000     0.379210000000     0.0735897  
C408     C      0.172730000000     0.162540000000     0.382580000000     0.0362072  
C409     C      0.168020000000     0.144440000000     0.387180000000    -0.0857091  
C410     C      0.181670000000     0.131030000000     0.388680000000     0.0737104  
C411     C      0.204380000000     0.152830000000     0.380580000000     0.0759938  
C412     C      0.191120000000     0.166440000000     0.378670000000    -0.0871102  
C413     C      0.218300000000     0.016430000000     0.406110000000    -0.0863447  
C414     C      0.230890000000     0.006030000000     0.395990000000     0.0356832  
C415     C      0.242800000000     0.015120000000     0.384000000000    -0.087304   
C416     C      0.242630000000     0.034210000000     0.383010000000     0.0738477  
C417     C      0.218620000000     0.035610000000     0.404900000000     0.0728132  
C418     C      0.232550000000     0.985920000000     0.398630000000     0.0358017  
C419     C      0.249830000000     0.978070000000     0.401340000000    -0.0872545  
C420     C      0.251540000000     0.959140000000     0.403370000000     0.074348   
C421     C      0.219430000000     0.955420000000     0.400170000000     0.0731965  
C422     C      0.217180000000     0.974430000000     0.398330000000    -0.0862287  
C423     C      0.241750000000     0.119000000000     0.481720000000    -0.0870969  
C424     C      0.253360000000     0.106900000000     0.491060000000     0.0356322  
C425     C      0.265020000000     0.095590000000     0.480800000000    -0.08637    
C426     C      0.264050000000     0.095760000000     0.461600000000     0.0730261  
C427     C      0.241250000000     0.118920000000     0.462570000000     0.0735301  
C428     C      0.252300000000     0.105280000000     0.511340000000     0.0359831  
C429     C      0.268120000000     0.104460000000     0.522190000000    -0.0864998  
C430     C      0.266560000000     0.102790000000     0.541280000000     0.07412    
C431     C      0.234170000000     0.102280000000     0.539000000000     0.0746236  
C432     C      0.235210000000     0.104180000000     0.519980000000    -0.0871905  
C433     C      0.974080000000     0.604760000000     0.770510000000    -0.0854266  
C434     C      0.984120000000     0.604150000000     0.754070000000     0.0355176  
C435     C      0.974440000000     0.603720000000     0.737450000000    -0.0868784  
C436     C      0.955390000000     0.602970000000     0.737490000000     0.0745967  
C437     C      0.954910000000     0.604310000000     0.770020000000     0.0730706  
C438     C      0.004500000000     0.603180000000     0.754040000000     0.0362839  
C439     C      0.015110000000     0.612690000000     0.767000000000    -0.0856285  
C440     C      0.034260000000     0.611460000000     0.766430000000     0.0733847  
C441     C      0.032590000000     0.591810000000     0.740540000000     0.0751192  
C442     C      0.013560000000     0.592530000000     0.740850000000    -0.0870696  
C443     C      0.881690000000     0.342640000000     0.680740000000    -0.0857929  
C444     C      0.880740000000     0.323990000000     0.685450000000     0.0358372  
C445     C      0.880100000000     0.319330000000     0.704130000000    -0.0867249  
C446     C      0.881340000000     0.332970000000     0.717500000000     0.0740755  
C447     C      0.882640000000     0.355980000000     0.694530000000     0.0732475  
C448     C      0.881380000000     0.309400000000     0.671110000000     0.0354759  
C449     C      0.872960000000     0.311720000000     0.653930000000    -0.0855451  
C450     C      0.874380000000     0.297970000000     0.640560000000     0.0727419  
C451     C      0.891940000000     0.279590000000     0.660840000000     0.0734234  
C452     C      0.890950000000     0.293040000000     0.674390000000    -0.0864198  
C453     C      0.886820000000     0.513400000000     0.765070000000    -0.0868428  
C454     C      0.886240000000     0.503730000000     0.748450000000     0.0357943  
C455     C      0.885360000000     0.513800000000     0.732030000000    -0.0855665  
C456     C      0.885570000000     0.533020000000     0.732550000000     0.0730346  
C457     C      0.887290000000     0.532490000000     0.765070000000     0.0745003  
C458     C      0.887140000000     0.483300000000     0.748450000000     0.0360122  
C459     C      0.897920000000     0.474170000000     0.761490000000    -0.0870431  
C460     C      0.898350000000     0.455080000000     0.761930000000     0.0750781  
C461     C      0.878260000000     0.453530000000     0.736400000000     0.0733936  
C462     C      0.877310000000     0.472720000000     0.735710000000    -0.0856701  
C463     C      0.105220000000     0.317100000000     0.705090000000    -0.0862544  
C464     C      0.113190000000     0.321350000000     0.688080000000     0.0358223  
C465     C      0.120480000000     0.339010000000     0.685630000000    -0.0856615  
C466     C      0.119090000000     0.352030000000     0.699680000000     0.0738236  
C467     C      0.104300000000     0.330350000000     0.718880000000     0.0743579  
C468     C      0.113090000000     0.307640000000     0.672860000000     0.0360199  
C469     C      0.114380000000     0.288790000000     0.676580000000    -0.0864445  
C470     C      0.112350000000     0.276030000000     0.662440000000     0.074462   
C471     C      0.109020000000     0.299980000000     0.640670000000     0.0745088  
C472     C      0.110670000000     0.313140000000     0.654540000000    -0.0858548  
C473     C      0.976940000000     0.392860000000     0.743230000000    -0.0868698  
C474     C      0.985910000000     0.382040000000     0.756370000000     0.0355426  
C475     C      0.975180000000     0.372390000000     0.769130000000    -0.0853957  
C476     C      0.956030000000     0.373590000000     0.768380000000     0.0729627  
C477     C      0.957910000000     0.393560000000     0.742760000000     0.0748997  
C478     C      0.006300000000     0.381040000000     0.756490000000     0.0360347  
C479     C      0.016050000000     0.381600000000     0.739910000000    -0.0869185  
C480     C      0.035100000000     0.382280000000     0.740020000000     0.0746012  
C481     C      0.035460000000     0.380660000000     0.772530000000     0.073071   
C482     C      0.016280000000     0.380250000000     0.772950000000    -0.0855102  
C483     C      0.103060000000     0.471870000000     0.766020000000    -0.0867475  
C484     C      0.104100000000     0.481180000000     0.749210000000     0.0357652  
C485     C      0.105440000000     0.470740000000     0.733060000000    -0.0855399  
C486     C      0.105210000000     0.451540000000     0.734000000000     0.073312   
C487     C      0.102600000000     0.452780000000     0.766430000000     0.0743081  
C488     C      0.103170000000     0.501600000000     0.748740000000     0.0359138  
C489     C      0.091990000000     0.510970000000     0.761260000000    -0.0870184  
C490     C      0.091550000000     0.530060000000     0.761330000000     0.0749474  
C491     C      0.112430000000     0.531160000000     0.736420000000     0.0731728  
C492     C      0.113380000000     0.511950000000     0.736110000000    -0.0854372  
C493     C      0.176770000000     0.843620000000     0.381960000000    -0.0856216  
C494     C      0.179360000000     0.825830000000     0.388890000000     0.0356719  
C495     C      0.196040000000     0.821840000000     0.397590000000    -0.0861102  
C496     C      0.209410000000     0.835380000000     0.399410000000     0.0739035  
C497     C      0.190370000000     0.856940000000     0.384270000000     0.0734251  
C498     C      0.164630000000     0.811670000000     0.387780000000     0.035764   
C499     C      0.146090000000     0.816550000000     0.389300000000    -0.0856342  
C500     C      0.132610000000     0.802930000000     0.389800000000     0.0734018  
C501     C      0.155210000000     0.779760000000     0.387040000000     0.0739744  
C502     C      0.169000000000     0.792990000000     0.386150000000    -0.0864155  
C503     C      0.841890000000     0.815580000000     0.376750000000    -0.0856912  
C504     C      0.824370000000     0.812840000000     0.384200000000     0.0358781  
C505     C      0.820650000000     0.796010000000     0.392760000000    -0.086537   
C506     C      0.834160000000     0.782550000000     0.393830000000     0.0742692  
C507     C      0.855200000000     0.801830000000     0.378260000000     0.073396   
C508     C      0.810110000000     0.827490000000     0.383630000000     0.0357594  
C509     C      0.814760000000     0.846090000000     0.385510000000    -0.0855323  
C510     C      0.800990000000     0.859410000000     0.386520000000     0.0731879  
C511     C      0.778160000000     0.836490000000     0.383510000000     0.0743344  
C512     C      0.791520000000     0.822900000000     0.382130000000    -0.086611   
C513     C      0.974560000000     0.766520000000     0.390040000000    -0.0854312  
C514     C      0.984600000000     0.750120000000     0.390800000000     0.0354971  
C515     C      0.974960000000     0.733490000000     0.391010000000    -0.0869634  
C516     C      0.955910000000     0.733490000000     0.391330000000     0.0745125  
C517     C      0.955370000000     0.766000000000     0.390140000000     0.0730891  
C518     C      0.004950000000     0.750100000000     0.392070000000     0.0362801  
C519     C      0.015710000000     0.762720000000     0.382300000000    -0.0857934  
C520     C      0.034840000000     0.761950000000     0.383560000000     0.0733522  
C521     C      0.032850000000     0.736670000000     0.403970000000     0.0748032  
C522     C      0.013820000000     0.737150000000     0.403160000000    -0.0870858  
C523     C      0.166850000000     0.793900000000     0.617690000000    -0.0862493  
C524     C      0.161660000000     0.811910000000     0.622040000000     0.0358208  
C525     C      0.143030000000     0.815480000000     0.625190000000    -0.0859663  
C526     C      0.130150000000     0.801380000000     0.623380000000     0.0740042  
C527     C      0.153660000000     0.780140000000     0.616200000000     0.0741911  
C528     C      0.175560000000     0.826900000000     0.622440000000     0.0362518  
C529     C      0.193530000000     0.823400000000     0.628250000000    -0.0868189  
C530     C      0.206930000000     0.836940000000     0.626620000000     0.07577    
C531     C      0.185070000000     0.857920000000     0.614850000000     0.07459    
C532     C      0.171350000000     0.844570000000     0.616010000000    -0.0860027  
C533     C      0.098280000000     0.692800000000     0.674840000000    -0.0864415  
C534     C      0.108190000000     0.676730000000     0.671180000000     0.035529   
C535     C      0.116630000000     0.674970000000     0.653950000000    -0.0854567  
C536     C      0.114940000000     0.689000000000     0.640910000000     0.0727186  
C537     C      0.097000000000     0.706540000000     0.661610000000     0.0734856  
C538     C      0.109220000000     0.661890000000     0.685220000000     0.0357727  
C539     C      0.109970000000     0.666240000000     0.703970000000    -0.0867549  
C540     C      0.109010000000     0.652370000000     0.717110000000     0.0741608  
C541     C      0.107840000000     0.629720000000     0.693770000000     0.0730986  
C542     C      0.108530000000     0.643310000000     0.680200000000    -0.0855904  
C543     C      0.096730000000     0.756280000000     0.483290000000    -0.0868246  
C544     C      0.106690000000     0.742570000000     0.492350000000     0.0358448  
C545     C      0.115460000000     0.729140000000     0.481680000000    -0.0855187  
C546     C      0.114180000000     0.729730000000     0.462480000000     0.0729828  
C547     C      0.095860000000     0.756530000000     0.464200000000     0.0747675  
C548     C      0.107560000000     0.742410000000     0.512790000000     0.03586    
C549     C      0.108220000000     0.758960000000     0.522580000000    -0.0867436  
C550     C      0.107140000000     0.758900000000     0.541680000000     0.0743427  
C551     C      0.106000000000     0.726390000000     0.541980000000     0.073845   
C552     C      0.106810000000     0.725950000000     0.522770000000    -0.0856033  
C553     C      0.841140000000     0.812490000000     0.615600000000    -0.0854787  
C554     C      0.822640000000     0.807240000000     0.614900000000     0.0356771  
C555     C      0.818580000000     0.788460000000     0.613680000000    -0.086475   
C556     C      0.832670000000     0.775630000000     0.612290000000     0.0743981  
C557     C      0.854920000000     0.799190000000     0.614560000000     0.0731898  
C558     C      0.807680000000     0.821180000000     0.614580000000     0.0360032  
C559     C      0.809270000000     0.837890000000     0.624050000000    -0.0857989  
C560     C      0.795390000000     0.851050000000     0.622730000000     0.0742555  
C561     C      0.778040000000     0.831350000000     0.603540000000     0.0745215  
C562     C      0.791730000000     0.818060000000     0.604300000000    -0.0864282  
C563     C      0.878690000000     0.672280000000     0.652180000000    -0.0859739  
C564     C      0.875910000000     0.677440000000     0.670550000000     0.0361426  
C565     C      0.873940000000     0.696160000000     0.674540000000    -0.0866599  
C566     C      0.875770000000     0.709190000000     0.660630000000     0.0747396  
C567     C      0.880130000000     0.685700000000     0.638540000000     0.0747445  
C568     C      0.876230000000     0.663550000000     0.685570000000     0.0359231  
C569     C      0.869470000000     0.645710000000     0.682920000000    -0.0858489  
C570     C      0.871230000000     0.632600000000     0.696840000000     0.074154   
C571     C      0.885450000000     0.654490000000     0.716240000000     0.0745478  
C572     C      0.884130000000     0.667840000000     0.702600000000    -0.0864513  
C573     C      0.877320000000     0.727650000000     0.520210000000    -0.0855785  
C574     C      0.888610000000     0.739530000000     0.510110000000     0.0356567  
C575     C      0.900770000000     0.750880000000     0.519730000000    -0.0868509  
C576     C      0.901000000000     0.750730000000     0.538830000000     0.0739331  
C577     C      0.878070000000     0.727700000000     0.539440000000     0.0727786  
C578     C      0.887670000000     0.740540000000     0.489700000000     0.0359211  
C579     C      0.885050000000     0.724800000000     0.478920000000    -0.0857508  
C580     C      0.885090000000     0.726180000000     0.459740000000     0.0733009  
C581     C      0.890010000000     0.758290000000     0.461680000000     0.0744913  
C582     C      0.889820000000     0.757450000000     0.480780000000    -0.0869615  
C583     C      0.974550000000     0.731050000000     0.612040000000    -0.086774   
C584     C      0.983590000000     0.748000000000     0.612620000000     0.0356787  
C585     C      0.973010000000     0.763980000000     0.614380000000    -0.0856302  
C586     C      0.953870000000     0.762760000000     0.614630000000     0.0735317  
C587     C      0.955500000000     0.730370000000     0.612130000000     0.0744745  
C588     C      0.003880000000     0.748800000000     0.610740000000     0.0359718  
C589     C      0.014450000000     0.761360000000     0.620790000000    -0.0856934  
C590     C      0.033560000000     0.761230000000     0.619140000000     0.0732596  
C591     C      0.031940000000     0.736860000000     0.597620000000     0.0738418  
C592     C      0.012910000000     0.736710000000     0.598820000000    -0.0866226  
C593     C      0.148110000000     0.371620000000     0.823930000000    -0.0858592  
C594     C      0.165870000000     0.378250000000     0.820720000000     0.0358638  
C595     C      0.170110000000     0.384800000000     0.803120000000    -0.0865388  
C596     C      0.156780000000     0.384950000000     0.789420000000     0.074342   
C597     C      0.135030000000     0.372110000000     0.809890000000     0.0735313  
C598     C      0.179820000000     0.378930000000     0.835650000000     0.0358717  
C599     C      0.174880000000     0.383320000000     0.853750000000    -0.0857769  
C600     C      0.188380000000     0.385170000000     0.867250000000     0.0731551  
C601     C      0.211520000000     0.378200000000     0.845510000000     0.0749088  
C602     C      0.198400000000     0.376040000000     0.831750000000    -0.0865804  
C603     C      0.216210000000     0.374930000000     0.023690000000    -0.0866252  
C604     C      0.224980000000     0.387700000000     0.012350000000     0.0357303  
C605     C      0.235720000000     0.401390000000     0.020420000000    -0.0871371  
C606     C      0.237850000000     0.401890000000     0.039430000000     0.0736074  
C607     C      0.218310000000     0.376090000000     0.042770000000     0.0731422  
C608     C      0.223760000000     0.386540000000     0.992100000000     0.0358888  
C609     C      0.228770000000     0.370440000000     0.982890000000    -0.0866837  
C610     C      0.230620000000     0.370600000000     0.963770000000     0.0734364  
C611     C      0.221080000000     0.401690000000     0.962690000000     0.0749391  
C612     C      0.219380000000     0.402110000000     0.981770000000    -0.0876572  
C613     C      0.255600000000     0.515380000000     0.122250000000    -0.0855875  
C614     C      0.242040000000     0.505010000000     0.113350000000     0.0357023  
C615     C      0.228540000000     0.514330000000     0.103370000000    -0.0867448  
C616     C      0.228640000000     0.533420000000     0.102560000000     0.0743224  
C617     C      0.255330000000     0.534570000000     0.121070000000     0.0729016  
C618     C      0.241870000000     0.484590000000     0.114140000000     0.0360177  
C619     C      0.258120000000     0.474380000000     0.113190000000    -0.0857898  
C620     C      0.257390000000     0.455190000000     0.112440000000     0.0742142  
C621     C      0.224970000000     0.455980000000     0.114010000000     0.0747091  
C622     C      0.225210000000     0.475070000000     0.114970000000    -0.0868889  
C623     C      0.193490000000     0.592390000000     0.830020000000    -0.0864746  
C624     C      0.177760000000     0.603000000000     0.833010000000     0.0354367  
C625     C      0.176050000000     0.612240000000     0.849840000000    -0.0854541  
C626     C      0.189890000000     0.610800000000     0.863070000000     0.0725122  
C627     C      0.207070000000     0.591390000000     0.843420000000     0.0731835  
C628     C      0.163310000000     0.604140000000     0.818610000000     0.0358281  
C629     C      0.168090000000     0.604170000000     0.799960000000    -0.0867464  
C630     C      0.154510000000     0.603610000000     0.786530000000     0.0741468  
C631     C      0.131380000000     0.604120000000     0.809360000000     0.0733959  
C632     C      0.144650000000     0.604460000000     0.823230000000    -0.0858534  
C633     C      0.268150000000     0.473160000000     0.912310000000    -0.0874502  
C634     C      0.264110000000     0.483050000000     0.896360000000     0.0357892  
C635     C      0.260150000000     0.473400000000     0.880220000000    -0.0864677  
C636     C      0.259030000000     0.454230000000     0.880630000000     0.0728845  
C637     C      0.267200000000     0.454030000000     0.912160000000     0.0744592  
C638     C      0.262280000000     0.503260000000     0.897070000000     0.0357183  
C639     C      0.250970000000     0.511300000000     0.910330000000    -0.0871297  
C640     C      0.248320000000     0.530240000000     0.910390000000     0.073737   
C641     C      0.268390000000     0.533610000000     0.884990000000     0.0733814  
C642     C      0.271050000000     0.514590000000     0.884270000000    -0.0866014  
C643     C      0.257640000000     0.607700000000     0.981920000000    -0.0869491  
C644     C      0.240980000000     0.605910000000     0.991300000000     0.0360209  
C645     C      0.224910000000     0.603790000000     0.980960000000    -0.0859281  
C646     C      0.225870000000     0.602820000000     0.961780000000     0.0743106  
C647     C      0.258110000000     0.606530000000     0.962820000000     0.0746413  
C648     C      0.240660000000     0.605380000000     0.011730000000     0.0357536  
C649     C      0.254560000000     0.596230000000     0.021320000000    -0.0869427  
C650     C      0.254280000000     0.595630000000     0.040430000000     0.0745235  
C651     C      0.226680000000     0.612750000000     0.041080000000     0.0731191  
C652     C      0.226560000000     0.613680000000     0.021860000000    -0.0855929  
C653     C      0.141380000000     0.618980000000     0.181400000000    -0.0855935  
C654     C      0.159180000000     0.612600000000     0.184910000000     0.0357966  
C655     C      0.162960000000     0.605520000000     0.202440000000    -0.0861496  
C656     C      0.149220000000     0.604710000000     0.215720000000     0.074127   
C657     C      0.127840000000     0.617600000000     0.194920000000     0.073516   
C658     C      0.173580000000     0.612590000000     0.170320000000     0.0356938  
C659     C      0.169020000000     0.609960000000     0.151750000000    -0.0854427  
C660     C      0.182820000000     0.608610000000     0.138510000000     0.0734436  
C661     C      0.205580000000     0.612470000000     0.161370000000     0.074251   
C662     C      0.192170000000     0.614330000000     0.174890000000    -0.0863044  
C663     C      0.091630000000     0.667760000000     0.302400000000    -0.0863095  
C664     C      0.102310000000     0.664150000000     0.317980000000     0.0353883  
C665     C      0.110730000000     0.646890000000     0.319440000000    -0.085458   
C666     C      0.108420000000     0.633850000000     0.305490000000     0.0723258  
C667     C      0.089750000000     0.654520000000     0.288710000000     0.0728052  
C668     C      0.104370000000     0.678360000000     0.332570000000     0.0356684  
C669     C      0.105250000000     0.697010000000     0.327910000000    -0.086658   
C670     C      0.105480000000     0.710340000000     0.341630000000     0.074161   
C671     C      0.105170000000     0.687360000000     0.364670000000     0.0728617  
C672     C      0.104710000000     0.673610000000     0.351250000000    -0.0855136  
C673     C      0.882300000000     0.648540000000     0.319890000000    -0.08597    
C674     C      0.878090000000     0.666760000000     0.315310000000     0.0360411  
C675     C      0.874490000000     0.670940000000     0.296860000000    -0.0868915  
C676     C      0.875850000000     0.657320000000     0.283490000000     0.0753342  
C677     C      0.883330000000     0.635180000000     0.306140000000     0.0733373  
C678     C      0.878310000000     0.681530000000     0.329440000000     0.0359166  
C679     C      0.872300000000     0.678280000000     0.347450000000    -0.0859496  
C680     C      0.873580000000     0.692170000000     0.360660000000     0.0738596  
C681     C      0.886030000000     0.712560000000     0.338570000000     0.0743351  
C682     C      0.885090000000     0.699000000000     0.325100000000    -0.0865347  
C683     C      0.968530000000     0.589490000000     0.225860000000    -0.0875943  
C684     C      0.978690000000     0.605180000000     0.230180000000     0.0360238  
C685     C      0.969370000000     0.621500000000     0.234080000000    -0.0867162  
C686     C      0.950230000000     0.621520000000     0.234890000000     0.0730326  
C687     C      0.949440000000     0.590080000000     0.226480000000     0.0744054  
C688     C      0.998800000000     0.604010000000     0.232390000000     0.0349077  
C689     C      0.006300000000     0.590720000000     0.244040000000    -0.0862384  
C690     C      0.025150000000     0.590210000000     0.247000000000     0.0734403  
C691     C      0.029470000000     0.615220000000     0.226580000000     0.0729938  
C692     C      0.010550000000     0.616390000000     0.223630000000    -0.0858907  
C693     C      0.867950000000     0.317680000000     0.352010000000    -0.0857658  
C694     C      0.874460000000     0.315680000000     0.333990000000     0.0357621  
C695     C      0.883220000000     0.299230000000     0.329240000000    -0.0865353  
C696     C      0.885260000000     0.285330000000     0.342230000000     0.0738839  
C697     C      0.870320000000     0.303470000000     0.364730000000     0.0732228  
C698     C      0.872710000000     0.330710000000     0.320240000000     0.0355125  
C699     C      0.869600000000     0.326680000000     0.301670000000    -0.0864602  
C700     C      0.869960000000     0.340660000000     0.288590000000     0.0731738  
C701     C      0.875190000000     0.362840000000     0.311830000000     0.073039   
C702     C      0.875090000000     0.349140000000     0.325290000000    -0.0857072  
C703     C      0.892370000000     0.482180000000     0.252740000000    -0.0873609  
C704     C      0.879350000000     0.490500000000     0.264090000000     0.0359771  
C705     C      0.866640000000     0.479430000000     0.273270000000    -0.0867742  
C706     C      0.867400000000     0.460340000000     0.271190000000     0.0740207  
C707     C      0.892470000000     0.463170000000     0.250650000000     0.0745475  
C708     C      0.879010000000     0.510720000000     0.265840000000     0.0357544  
C709     C      0.894980000000     0.520250000000     0.270490000000    -0.0875019  
C710     C      0.895280000000     0.539370000000     0.269600000000     0.0746736  
C711     C      0.864160000000     0.539860000000     0.260230000000     0.0730771  
C712     C      0.863290000000     0.520710000000     0.261320000000    -0.0865055  
C713     C      0.106600000000     0.321260000000     0.296930000000    -0.0866187  
C714     C      0.105890000000     0.325380000000     0.315740000000     0.0361235  
C715     C      0.103980000000     0.343830000000     0.320940000000    -0.0859114  
C716     C      0.102190000000     0.357450000000     0.307540000000     0.0747078  
C717     C      0.104460000000     0.335160000000     0.283940000000     0.0748116  
C718     C      0.106070000000     0.310430000000     0.329740000000     0.0358405  
C719     C      0.114040000000     0.312990000000     0.347100000000    -0.0857271  
C720     C      0.112850000000     0.299150000000     0.360380000000     0.0737322  
C721     C      0.096800000000     0.280030000000     0.339540000000     0.0742529  
C722     C      0.097530000000     0.293590000000     0.326060000000    -0.0863541  
C723     C      0.161440000000     0.378360000000     0.204840000000    -0.0862038  
C724     C      0.157480000000     0.378990000000     0.185990000000     0.0356657  
C725     C      0.139030000000     0.380600000000     0.180710000000    -0.0852811  
C726     C      0.125300000000     0.381950000000     0.194030000000     0.0732452  
C727     C      0.147450000000     0.380310000000     0.217740000000     0.0743554  
C728     C      0.172530000000     0.378830000000     0.172050000000     0.0358117  
C729     C      0.189780000000     0.386310000000     0.176200000000    -0.0862384  
C730     C      0.203470000000     0.386900000000     0.162870000000     0.0744784  
C731     C      0.183650000000     0.373120000000     0.141110000000     0.0738744  
C732     C      0.169760000000     0.371860000000     0.154270000000    -0.0855979  
C733     C      0.968150000000     0.395590000000     0.263470000000    -0.0868245  
C734     C      0.976550000000     0.385530000000     0.249380000000     0.0360348  
C735     C      0.965340000000     0.377830000000     0.235740000000    -0.0854756  
C736     C      0.946300000000     0.380170000000     0.236530000000     0.0726371  
C737     C      0.949180000000     0.397430000000     0.263970000000     0.0745851  
C738     C      0.996880000000     0.383450000000     0.249070000000     0.0347215  
C739     C      0.006770000000     0.383430000000     0.232530000000    -0.0843722  
C740     C      0.025960000000     0.383230000000     0.232850000000     0.0728054  
C741     C      0.025790000000     0.382560000000     0.265390000000     0.0738259  
C742     C      0.006720000000     0.382360000000     0.265570000000    -0.0856281  
C743     C      0.104110000000     0.475580000000     0.267920000000    -0.0856658  
C744     C      0.094960000000     0.486020000000     0.254580000000     0.035444   
C745     C      0.084480000000     0.476810000000     0.241360000000    -0.086764   
C746     C      0.083640000000     0.457730000000     0.241370000000     0.0733426  
C747     C      0.102930000000     0.456380000000     0.267540000000     0.0722273  
C748     C      0.096250000000     0.506390000000     0.254150000000     0.0360017  
C749     C      0.095590000000     0.516840000000     0.270320000000    -0.0859955  
C750     C      0.095520000000     0.536030000000     0.269310000000     0.0741671  
C751     C      0.097320000000     0.534740000000     0.236820000000     0.074713   
C752     C      0.097490000000     0.515630000000     0.237320000000    -0.0870703  
C753     C      0.600050000000     0.169640000000     0.795740000000    -0.0864607  
C754     C      0.605830000000     0.164990000000     0.813510000000     0.0356344  
C755     C      0.610670000000     0.146680000000     0.817000000000    -0.0856678  
C756     C      0.609600000000     0.133610000000     0.802950000000     0.0727974  
C757     C      0.599360000000     0.156330000000     0.782040000000     0.0744675  
C758     C      0.606400000000     0.179220000000     0.828220000000     0.036097   
C759     C      0.610960000000     0.197420000000     0.823960000000    -0.0869326  
C760     C      0.609740000000     0.211010000000     0.837370000000     0.0756343  
C761     C      0.600850000000     0.188990000000     0.859610000000     0.0735373  
C762     C      0.601630000000     0.175040000000     0.846420000000    -0.0858153  
C763     C      0.617350000000     0.244690000000     0.973810000000    -0.0872893  
C764     C      0.604070000000     0.234860000000     0.983570000000     0.0356836  
C765     C      0.591070000000     0.224690000000     0.973760000000    -0.0867346  
C766     C      0.590840000000     0.225500000000     0.954570000000     0.0735803  
C767     C      0.616870000000     0.244980000000     0.954660000000     0.0734326  
C768     C      0.602880000000     0.236550000000     0.003800000000     0.0358901  
C769     C      0.601160000000     0.221070000000     0.015070000000    -0.086577   
C770     C      0.599620000000     0.223260000000     0.034110000000     0.073584   
C771     C      0.600970000000     0.255630000000     0.030900000000     0.0743459  
C772     C      0.602880000000     0.253940000000     0.011930000000    -0.0873462  
C773     C      0.318720000000     0.295580000000     0.119410000000    -0.0870043  
C774     C      0.322840000000     0.314010000000     0.115800000000     0.0358916  
C775     C      0.341110000000     0.318720000000     0.112120000000    -0.0856807  
C776     C      0.354510000000     0.304990000000     0.111190000000     0.0731734  
C777     C      0.332360000000     0.282270000000     0.118200000000     0.0749693  
C778     C      0.307910000000     0.327900000000     0.114850000000     0.0354447  
C779     C      0.291020000000     0.323240000000     0.106990000000    -0.0864985  
C780     C      0.277080000000     0.336230000000     0.105840000000     0.072861   
C781     C      0.296020000000     0.358590000000     0.119930000000     0.0722523  
C782     C      0.310330000000     0.345850000000     0.121360000000    -0.0856684  
C783     C      0.470800000000     0.242720000000     0.114630000000    -0.0871293  
C784     C      0.479600000000     0.256460000000     0.104520000000     0.035551   
C785     C      0.468900000000     0.270070000000     0.096160000000    -0.0859291  
C786     C      0.449760000000     0.269090000000     0.097210000000     0.0722029  
C787     C      0.451760000000     0.242200000000     0.115460000000     0.0740726  
C788     C      0.499750000000     0.255740000000     0.101990000000     0.0357133  
C789     C      0.510760000000     0.271340000000     0.104140000000    -0.0859798  
C790     C      0.529830000000     0.269820000000     0.102520000000     0.0728762  
C791     C      0.527130000000     0.238050000000     0.095990000000     0.0742688  
C792     C      0.508170000000     0.239030000000     0.097650000000    -0.08735    
C793     C      0.297970000000     0.324410000000     0.887470000000    -0.0866926  
C794     C      0.315390000000     0.327790000000     0.894870000000     0.0358446  
C795     C      0.318830000000     0.345150000000     0.902470000000    -0.0859081  
C796     C      0.304950000000     0.358380000000     0.902940000000     0.0732745  
C797     C      0.284380000000     0.337800000000     0.888460000000     0.0748421  
C798     C      0.329540000000     0.313040000000     0.895150000000     0.0356153  
C799     C      0.324400000000     0.294660000000     0.897570000000    -0.0864953  
C800     C      0.337630000000     0.280890000000     0.897820000000     0.0745579  
C801     C      0.361200000000     0.302900000000     0.893840000000     0.0725416  
C802     C      0.348250000000     0.317050000000     0.893240000000    -0.0856949  
C803     C      0.394810000000     0.167750000000     0.800720000000    -0.0866486  
C804     C      0.387680000000     0.162770000000     0.817870000000     0.0354291  
C805     C      0.381600000000     0.144700000000     0.820380000000    -0.0861202  
C806     C      0.382690000000     0.132130000000     0.805900000000     0.0727711  
C807     C      0.395810000000     0.154830000000     0.786620000000     0.0731115  
C808     C      0.386830000000     0.176430000000     0.832990000000     0.0358913  
C809     C      0.392120000000     0.171780000000     0.850900000000    -0.0863769  
C810     C      0.392410000000     0.185230000000     0.864610000000     0.0728649  
C811     C      0.381710000000     0.207540000000     0.843450000000     0.0745653  
C812     C      0.381330000000     0.194490000000     0.829440000000    -0.0871712  
C813     C      0.367490000000     0.226080000000     0.979030000000    -0.0862487  
C814     C      0.382900000000     0.223890000000     0.990290000000     0.0352532  
C815     C      0.400080000000     0.221930000000     0.981910000000    -0.0857958  
C816     C      0.401670000000     0.223360000000     0.962840000000     0.0730948  
C817     C      0.369590000000     0.227490000000     0.960030000000     0.0725304  
C818     C      0.381310000000     0.225370000000     0.010610000000     0.0357568  
C819     C      0.369850000000     0.238670000000     0.018440000000    -0.0867017  
C820     C      0.369850000000     0.241400000000     0.037400000000     0.0736482  
C821     C      0.391670000000     0.217620000000     0.041300000000     0.0729063  
C822     C      0.392060000000     0.214540000000     0.022330000000    -0.0865213  
C823     C      0.474980000000     0.267490000000     0.904990000000    -0.0857957  
C824     C      0.483210000000     0.266550000000     0.887600000000     0.0354803  
C825     C      0.471850000000     0.264090000000     0.872250000000    -0.0861034  
C826     C      0.453040000000     0.261480000000     0.874600000000     0.0731802  
C827     C      0.456100000000     0.265030000000     0.906810000000     0.0737559  
C828     C      0.503550000000     0.266540000000     0.885720000000     0.0356848  
C829     C      0.514650000000     0.276840000000     0.897600000000    -0.0862431  
C830     C      0.533680000000     0.274700000000     0.897180000000     0.0735231  
C831     C      0.531160000000     0.253370000000     0.872740000000     0.0732924  
C832     C      0.512130000000     0.255040000000     0.872880000000    -0.0862047  
C833     C      0.317500000000     0.884290000000     0.302590000000    -0.0863842  
C834     C      0.322550000000     0.884360000000     0.321170000000     0.0356742  
C835     C      0.341280000000     0.884960000000     0.325470000000    -0.0853369  
C836     C      0.354320000000     0.886000000000     0.311420000000     0.0730092  
C837     C      0.330830000000     0.885660000000     0.288950000000     0.074081   
C838     C      0.308290000000     0.884580000000     0.335850000000     0.0357342  
C839     C      0.291730000000     0.893940000000     0.333110000000    -0.086475   
C840     C      0.278580000000     0.894440000000     0.346970000000     0.0740195  
C841     C      0.297700000000     0.876840000000     0.366510000000     0.0732121  
C842     C      0.311100000000     0.875840000000     0.352810000000    -0.0855625  
C843     C      0.336910000000     0.122470000000     0.319690000000    -0.0859692  
C844     C      0.319840000000     0.113850000000     0.317770000000     0.0360158  
C845     C      0.316210000000     0.104320000000     0.301450000000    -0.0867928  
C846     C      0.329400000000     0.103450000000     0.287660000000     0.0748076  
C847     C      0.349890000000     0.121200000000     0.305600000000     0.0741135  
C848     C      0.305940000000     0.114230000000     0.332730000000     0.0362569  
C849     C      0.311070000000     0.112820000000     0.351260000000    -0.0858891  
C850     C      0.297620000000     0.111320000000     0.364880000000     0.0741504  
C851     C      0.274230000000     0.113180000000     0.342380000000     0.0763685  
C852     C      0.287240000000     0.114950000000     0.328500000000    -0.0871753  
C853     C      0.378080000000     0.198640000000     0.173390000000    -0.0866804  
C854     C      0.369620000000     0.181830000000     0.169360000000     0.0362899  
C855     C      0.363300000000     0.178910000000     0.151390000000    -0.0860821  
C856     C      0.365950000000     0.192360000000     0.137940000000     0.0744929  
C857     C      0.380300000000     0.211820000000     0.159710000000     0.0759345  
C858     C      0.368360000000     0.167240000000     0.183670000000     0.0357852  
C859     C      0.370680000000     0.148670000000     0.179120000000    -0.0856327  
C860     C      0.371690000000     0.135440000000     0.192990000000     0.0743116  
C861     C      0.367510000000     0.158320000000     0.215740000000     0.0740602  
C862     C      0.366120000000     0.171840000000     0.202250000000    -0.0863847  
C863     C      0.386030000000     0.019210000000     0.264800000000    -0.0866878  
C864     C      0.382360000000     0.009440000000     0.248620000000     0.0357301  
C865     C      0.378710000000     0.019450000000     0.232560000000    -0.0853267  
C866     C      0.379080000000     0.038670000000     0.232920000000     0.0729106  
C867     C      0.386620000000     0.038310000000     0.264580000000     0.074283   
C868     C      0.382780000000     0.988970000000     0.248650000000     0.0358353  
C869     C      0.395080000000     0.979590000000     0.260080000000    -0.0869279  
C870     C      0.395040000000     0.960500000000     0.260660000000     0.0749886  
C871     C      0.371550000000     0.959340000000     0.238240000000     0.0732431  
C872     C      0.370970000000     0.978550000000     0.237550000000    -0.0854015  
C873     C      0.604220000000     0.172420000000     0.197900000000    -0.0865657  
C874     C      0.603510000000     0.167690000000     0.179240000000     0.0357499  
C875     C      0.602330000000     0.149020000000     0.174630000000    -0.0855479  
C876     C      0.601280000000     0.135750000000     0.188470000000     0.073362   
C877     C      0.602880000000     0.158850000000     0.211330000000     0.0743377  
C878     C      0.603120000000     0.182220000000     0.164820000000     0.0356662  
C879     C      0.593900000000     0.198810000000     0.167990000000    -0.0864115  
C880     C      0.593060000000     0.212130000000     0.154280000000     0.0737636  
C881     C      0.610180000000     0.193200000000     0.134130000000     0.0731772  
C882     C      0.611460000000     0.179600000000     0.147650000000    -0.0855901  
C883     C      0.640710000000     0.112400000000     0.317050000000    -0.0855398  
C884     C      0.659130000000     0.114010000000     0.311730000000     0.0356406  
C885     C      0.663060000000     0.115270000000     0.292910000000    -0.0863323  
C886     C      0.649020000000     0.113930000000     0.280000000000     0.0741341  
C887     C      0.626940000000     0.111470000000     0.303720000000     0.0732755  
C888     C      0.674220000000     0.113380000000     0.325530000000     0.0359487  
C889     C      0.672080000000     0.120760000000     0.343220000000    -0.0856416  
C890     C      0.686170000000     0.119070000000     0.356150000000     0.0735438  
C891     C      0.704700000000     0.103600000000     0.334370000000     0.0745953  
C892     C      0.690870000000     0.104790000000     0.321250000000    -0.086595   
C893     C      0.509760000000     0.121340000000     0.265180000000    -0.0855277  
C894     C      0.498630000000     0.113350000000     0.251670000000     0.0358966  
C895     C      0.507100000000     0.103680000000     0.237360000000    -0.0869587  
C896     C      0.526090000000     0.102330000000     0.236640000000     0.0748475  
C897     C      0.528850000000     0.119620000000     0.264090000000     0.0730907  
C898     C      0.478300000000     0.114670000000     0.252330000000     0.0355439  
C899     C      0.468660000000     0.113240000000     0.268950000000    -0.0854331  
C900     C      0.449480000000     0.112590000000     0.268830000000     0.0725603  
C901     C      0.449220000000     0.115400000000     0.236390000000     0.073722   
C902     C      0.468250000000     0.116340000000     0.236020000000    -0.0868827  
C903     C      0.664490000000     0.890380000000     0.299530000000    -0.0867006  
C904     C      0.660820000000     0.881700000000     0.316330000000     0.0360108  
C905     C      0.643250000000     0.874410000000     0.319140000000    -0.0857968  
C906     C      0.629850000000     0.876190000000     0.305510000000     0.0735944  
C907     C      0.650890000000     0.891690000000     0.286180000000     0.0746076  
C908     C      0.675170000000     0.880890000000     0.330880000000     0.0356948  
C909     C      0.693720000000     0.879320000000     0.326160000000    -0.0864055  
C910     C      0.707180000000     0.880530000000     0.339690000000     0.074242   
C911     C      0.684490000000     0.883460000000     0.362790000000     0.073343   
C912     C      0.670640000000     0.882630000000     0.349540000000    -0.0854439  
C913     C      0.510510000000     0.886900000000     0.270880000000    -0.0854407  
C914     C      0.500420000000     0.886370000000     0.254480000000     0.0357645  
C915     C      0.510060000000     0.886080000000     0.237820000000    -0.0868661  
C916     C      0.529080000000     0.887240000000     0.237750000000     0.0744776  
C917     C      0.529670000000     0.887740000000     0.270300000000     0.0731851  
C918     C      0.480020000000     0.886970000000     0.254460000000     0.0358684  
C919     C      0.469580000000     0.878050000000     0.267980000000    -0.0854007  
C920     C      0.450410000000     0.879050000000     0.267480000000     0.0730581  
C921     C      0.451710000000     0.897280000000     0.240550000000     0.0751236  
C922     C      0.470750000000     0.896750000000     0.240740000000    -0.0869634  
C923     C      0.596130000000     0.979020000000     0.262240000000    -0.0866352  
C924     C      0.597290000000     0.988200000000     0.245360000000     0.0356892  
C925     C      0.598820000000     0.977620000000     0.229320000000    -0.0853915  
C926     C      0.598690000000     0.958420000000     0.230430000000     0.0728794  
C927     C      0.595800000000     0.959930000000     0.262820000000     0.0741888  
C928     C      0.596360000000     0.008630000000     0.244700000000     0.0356945  
C929     C      0.585120000000     0.018140000000     0.257060000000    -0.0866499  
C930     C      0.584720000000     0.037240000000     0.256990000000     0.0742328  
C931     C      0.605780000000     0.038090000000     0.232220000000     0.0728084  
C932     C      0.606680000000     0.018870000000     0.232060000000    -0.0853322  
C933     C      0.812020000000     0.617210000000     0.146660000000    -0.0861791  
C934     C      0.808130000000     0.614120000000     0.165280000000     0.035961   
C935     C      0.789900000000     0.610720000000     0.170320000000    -0.0864418  
C936     C      0.776250000000     0.609980000000     0.156940000000     0.0744446  
C937     C      0.798030000000     0.616120000000     0.133600000000     0.0741852  
C938     C      0.822990000000     0.613690000000     0.179310000000     0.0359798  
C939     C      0.840350000000     0.606540000000     0.175100000000    -0.0859358  
C940     C      0.853670000000     0.605050000000     0.188800000000     0.0734821  
C941     C      0.833230000000     0.617670000000     0.210710000000     0.0751146  
C942     C      0.819710000000     0.619630000000     0.197320000000    -0.0867227  
C943     C      0.814190000000     0.605280000000     0.849750000000    -0.0861321  
C944     C      0.809800000000     0.609660000000     0.831510000000     0.0361139  
C945     C      0.791460000000     0.613270000000     0.827160000000    -0.0869418  
C946     C      0.777970000000     0.611710000000     0.840610000000     0.0753457  
C947     C      0.800320000000     0.604040000000     0.862940000000     0.0736091  
C948     C      0.824030000000     0.609510000000     0.816880000000     0.0359763  
C949     C      0.841930000000     0.615630000000     0.820280000000    -0.0860178  
C950     C      0.855220000000     0.614420000000     0.806480000000     0.0739177  
C951     C      0.833430000000     0.601730000000     0.785950000000     0.0747089  
C952     C      0.819890000000     0.602630000000     0.799390000000    -0.0867902  
C953     C      0.764670000000     0.588340000000     0.976950000000    -0.0875265  
C954     C      0.759620000000     0.603810000000     0.987140000000     0.0359667  
C955     C      0.754610000000     0.619820000000     0.977780000000    -0.0866987  
C956     C      0.753490000000     0.619690000000     0.958620000000     0.0734861  
C957     C      0.763680000000     0.588780000000     0.957820000000     0.074679   
C958     C      0.757930000000     0.602700000000     0.007370000000     0.0357482  
C959     C      0.747830000000     0.588450000000     0.015330000000    -0.086946   
C960     C      0.745100000000     0.588110000000     0.034280000000     0.0734418  
C961     C      0.762790000000     0.615190000000     0.037780000000     0.0736968  
C962     C      0.765490000000     0.616170000000     0.018780000000    -0.0866879  
C963     C      0.669360000000     0.345480000000     0.111500000000    -0.0855459  
C964     C      0.674110000000     0.326850000000     0.112750000000     0.0356712  
C965     C      0.692750000000     0.322360000000     0.114170000000    -0.0862341  
C966     C      0.706030000000     0.336110000000     0.113330000000     0.0739305  
C967     C      0.683020000000     0.358920000000     0.111080000000     0.0735129  
C968     C      0.659890000000     0.312150000000     0.111630000000     0.0357014  
C969     C      0.642160000000     0.314820000000     0.118610000000    -0.0854468  
C970     C      0.628810000000     0.301210000000     0.116380000000     0.0732109  
C971     C      0.650220000000     0.282040000000     0.101220000000     0.0740433  
C972     C      0.663770000000     0.295420000000     0.102930000000    -0.0861942  
C973     C      0.787430000000     0.383900000000     0.173940000000    -0.0863492  
C974     C      0.806110000000     0.385390000000     0.169700000000     0.0356607  
C975     C      0.811170000000     0.386030000000     0.151100000000    -0.0853657  
C976     C      0.797710000000     0.385820000000     0.137410000000     0.0730248  
C977     C      0.774370000000     0.384070000000     0.159950000000     0.0740816  
C978     C      0.820050000000     0.387000000000     0.184630000000     0.0354982  
C979     C      0.815800000000     0.396230000000     0.201000000000    -0.0860135  
C980     C      0.828840000000     0.397780000000     0.214900000000     0.0733244  
C981     C      0.850570000000     0.381740000000     0.196830000000     0.0727236  
C982     C      0.837730000000     0.379690000000     0.182690000000    -0.0853121  
C983     C      0.722960000000     0.476190000000     0.117010000000    -0.0857636  
C984     C      0.737080000000     0.486730000000     0.109310000000     0.0358     
C985     C      0.751510000000     0.477630000000     0.100510000000    -0.0870319  
C986     C      0.751750000000     0.458550000000     0.099690000000     0.0744771  
C987     C      0.723640000000     0.457000000000     0.115930000000     0.0730626  
C988     C      0.736960000000     0.507120000000     0.110170000000     0.036031   
C989     C      0.720890000000     0.517200000000     0.107130000000    -0.085935   
C990     C      0.721610000000     0.536390000000     0.106300000000     0.0741453  
C991     C      0.753560000000     0.535800000000     0.112090000000     0.0746557  
C992     C      0.753320000000     0.516720000000     0.113110000000    -0.0872309  
C993     C      0.811250000000     0.375550000000     0.849110000000    -0.0854322  
C994     C      0.810600000000     0.384990000000     0.832330000000     0.0353476  
C995     C      0.795630000000     0.396550000000     0.828950000000    -0.0864076  
C996     C      0.781700000000     0.398230000000     0.841920000000     0.0728198  
C997     C      0.797050000000     0.377640000000     0.861890000000     0.0722856  
C998     C      0.825350000000     0.383060000000     0.818330000000     0.0356683  
C999     C      0.843860000000     0.381990000000     0.823400000000    -0.085585   
C1000    C      0.857480000000     0.381710000000     0.809860000000     0.0729001  
C1001    C      0.834930000000     0.382880000000     0.786470000000     0.0740076  
C1002    C      0.821020000000     0.383020000000     0.799580000000    -0.0866961  
C1003    C      0.670570000000     0.348670000000     0.874190000000    -0.0859869  
C1004    C      0.674100000000     0.330050000000     0.877590000000     0.0358437  
C1005    C      0.692040000000     0.324930000000     0.882280000000    -0.0863312  
C1006    C      0.705690000000     0.338220000000     0.883910000000     0.0742151  
C1007    C      0.684530000000     0.361650000000     0.876240000000     0.073916   
C1008    C      0.659130000000     0.316120000000     0.877180000000     0.0358978  
C1009    C      0.641330000000     0.320570000000     0.882980000000    -0.0858063  
C1010    C      0.627920000000     0.306920000000     0.884110000000     0.0737371  
C1011    C      0.649080000000     0.284600000000     0.873630000000     0.0751313  
C1012    C      0.662700000000     0.297930000000     0.871990000000    -0.0864455  
C1013    C      0.760130000000     0.387350000000     0.978240000000    -0.0858423  
C1014    C      0.743940000000     0.384560000000     0.988220000000     0.0358636  
C1015    C      0.727590000000     0.381970000000     0.978470000000    -0.0869962  
C1016    C      0.727500000000     0.383070000000     0.959370000000     0.0744623  
C1017    C      0.759540000000     0.388280000000     0.959030000000     0.0741105  
C1018    C      0.743730000000     0.385330000000     0.008640000000     0.0357023  
C1019    C      0.757740000000     0.377490000000     0.019240000000    -0.0856586  
C1020    C      0.757050000000     0.378620000000     0.038450000000     0.0728496  
C1021    C      0.729100000000     0.395100000000     0.036820000000     0.0743044  
C1022    C      0.729360000000     0.394250000000     0.017730000000    -0.086869   
C1023    C      0.716970000000     0.476270000000     0.878840000000    -0.0865778  
C1024    C      0.724510000000     0.487660000000     0.892350000000     0.0355932  
C1025    C      0.734460000000     0.479650000000     0.906690000000    -0.086683   
C1026    C      0.737060000000     0.460700000000     0.907090000000     0.0733064  
C1027    C      0.719540000000     0.457270000000     0.879870000000     0.0735926  
C1028    C      0.722930000000     0.507890000000     0.891210000000     0.0359175  
C1029    C      0.727950000000     0.517200000000     0.875160000000    -0.0865646  
C1030    C      0.729110000000     0.536350000000     0.875240000000     0.0732488  
C1031    C      0.718950000000     0.537250000000     0.906170000000     0.0746751  
C1032    C      0.717920000000     0.518130000000     0.906670000000    -0.0875195  
C1033    C      0.288060000000     0.669430000000     0.117890000000    -0.0865676  
C1034    C      0.306750000000     0.665000000000     0.117750000000     0.0357217  
C1035    C      0.311670000000     0.646380000000     0.117370000000    -0.0854798  
C1036    C      0.298100000000     0.632850000000     0.116410000000     0.0733302  
C1037    C      0.274920000000     0.655620000000     0.116620000000     0.074332   
C1038    C      0.320860000000     0.679780000000     0.117030000000     0.0356089  
C1039    C      0.317450000000     0.695930000000     0.107140000000    -0.0864367  
C1040    C      0.330720000000     0.709630000000     0.106180000000     0.0734936  
C1041    C      0.351000000000     0.691850000000     0.124320000000     0.0727977  
C1042    C      0.337900000000     0.677890000000     0.125760000000    -0.0855798  
C1043    C      0.378540000000     0.796410000000     0.177430000000    -0.0861945  
C1044    C      0.372120000000     0.813960000000     0.172780000000     0.0358157  
C1045    C      0.366580000000     0.817040000000     0.154560000000    -0.0856129  
C1046    C      0.368150000000     0.803040000000     0.141500000000     0.0737174  
C1047    C      0.379580000000     0.782680000000     0.164130000000     0.0742888  
C1048    C      0.372000000000     0.829020000000     0.186720000000     0.0358191  
C1049    C      0.369450000000     0.825110000000     0.205420000000    -0.086336   
C1050    C      0.371380000000     0.838950000000     0.218520000000     0.0741722  
C1051    C      0.376790000000     0.860920000000     0.195150000000     0.0735944  
C1052    C      0.375410000000     0.847310000000     0.181680000000    -0.0855327  
C1053    C      0.379230000000     0.817340000000     0.852350000000    -0.0852924  
C1054    C      0.377610000000     0.812490000000     0.833750000000     0.0356707  
C1055    C      0.376030000000     0.793800000000     0.829380000000    -0.0865399  
C1056    C      0.377170000000     0.780570000000     0.843150000000     0.0743807  
C1057    C      0.379860000000     0.803700000000     0.865860000000     0.0727716  
C1058    C      0.378520000000     0.826640000000     0.818930000000     0.0358391  
C1059    C      0.371990000000     0.844560000000     0.821690000000    -0.0854346  
C1060    C      0.374070000000     0.857810000000     0.807930000000     0.0735326  
C1061    C      0.388110000000     0.835920000000     0.788410000000     0.0745976  
C1062    C      0.386590000000     0.822480000000     0.801940000000    -0.0864536  
C1063    C      0.342250000000     0.674070000000     0.888340000000    -0.0858749  
C1064    C      0.324010000000     0.678580000000     0.884230000000     0.0360879  
C1065    C      0.319670000000     0.697150000000     0.881510000000    -0.0864065  
C1066    C      0.333070000000     0.710620000000     0.883810000000     0.0746613  
C1067    C      0.355400000000     0.687890000000     0.890100000000     0.0747881  
C1068    C      0.309470000000     0.664170000000     0.883820000000     0.0357705  
C1069    C      0.313410000000     0.646080000000     0.878460000000    -0.085603   
C1070    C      0.299980000000     0.632460000000     0.879850000000     0.073734   
C1071    C      0.278440000000     0.654310000000     0.890540000000     0.0743071  
C1072    C      0.291600000000     0.668170000000     0.889690000000    -0.0861641  
C1073    C      0.377700000000     0.767060000000     0.982480000000    -0.0853793  
C1074    C      0.379340000000     0.751070000000     0.993090000000     0.0358055  
C1075    C      0.379740000000     0.734110000000     0.984000000000    -0.0867579  
C1076    C      0.379650000000     0.733450000000     0.964890000000     0.0745237  
C1077    C      0.377410000000     0.765860000000     0.963270000000     0.0732381  
C1078    C      0.381330000000     0.751840000000     0.013440000000     0.0356737  
C1079    C      0.393010000000     0.739490000000     0.022440000000    -0.0865727  
C1080    C      0.394290000000     0.739600000000     0.041520000000     0.0739003  
C1081    C      0.373430000000     0.764470000000     0.043270000000     0.0731137  
C1082    C      0.371670000000     0.764630000000     0.024110000000    -0.0854884  
C1083    C      0.599860000000     0.823200000000     0.203480000000    -0.0864827  
C1084    C      0.607780000000     0.827070000000     0.186370000000     0.0359992  
C1085    C      0.614670000000     0.844810000000     0.183360000000    -0.0856907  
C1086    C      0.613030000000     0.858220000000     0.197030000000     0.0737759  
C1087    C      0.598690000000     0.836810000000     0.216870000000     0.0745939  
C1088    C      0.608020000000     0.812840000000     0.171630000000     0.0356835  
C1089    C      0.609610000000     0.794160000000     0.176030000000    -0.0863689  
C1090    C      0.607720000000     0.780860000000     0.162380000000     0.0741764  
C1091    C      0.604120000000     0.803930000000     0.139730000000     0.0734669  
C1092    C      0.605580000000     0.817630000000     0.153110000000    -0.0854931  
C1093    C      0.663280000000     0.697260000000     0.112500000000    -0.0868311  
C1094    C      0.658450000000     0.678640000000     0.112390000000     0.0357294  
C1095    C      0.639820000000     0.674060000000     0.113480000000    -0.0856643  
C1096    C      0.626570000000     0.687960000000     0.113870000000     0.0730286  
C1097    C      0.649730000000     0.710710000000     0.112720000000     0.0743625  
C1098    C      0.672820000000     0.664280000000     0.110320000000     0.0354593  
C1099    C      0.687860000000     0.667370000000     0.098760000000    -0.0865022  
C1100    C      0.701460000000     0.654090000000     0.096990000000     0.0729494  
C1101    C      0.685630000000     0.634370000000     0.117450000000     0.0724822  
C1102    C      0.671750000000     0.647470000000     0.119640000000    -0.0855774  
C1103    C      0.510350000000     0.731270000000     0.124300000000    -0.0854995  
C1104    C      0.499810000000     0.744670000000     0.115350000000     0.0358615  
C1105    C      0.508940000000     0.758180000000     0.105160000000    -0.0868868  
C1106    C      0.527980000000     0.758240000000     0.104240000000     0.0748277  
C1107    C      0.529490000000     0.731660000000     0.122940000000     0.0729663  
C1108    C      0.479420000000     0.744680000000     0.116250000000     0.0358971  
C1109    C      0.469350000000     0.728280000000     0.115880000000    -0.0855643  
C1110    C      0.450190000000     0.728830000000     0.115170000000     0.0738549  
C1111    C      0.450720000000     0.761360000000     0.115620000000     0.0745542  
C1112    C      0.469770000000     0.761310000000     0.116590000000    -0.0867444  
C1113    C      0.604260000000     0.797310000000     0.829010000000    -0.086487   
C1114    C      0.612680000000     0.813910000000     0.833850000000     0.0358717  
C1115    C      0.619040000000     0.815990000000     0.851920000000    -0.0860026  
C1116    C      0.616510000000     0.801860000000     0.864680000000     0.0738048  
C1117    C      0.602090000000     0.783470000000     0.842050000000     0.0740476  
C1118    C      0.614010000000     0.829140000000     0.820260000000     0.0357061  
C1119    C      0.616840000000     0.825390000000     0.801590000000    -0.0865451  
C1120    C      0.615870000000     0.839510000000     0.788700000000     0.0734504  
C1121    C      0.610680000000     0.861300000000     0.812310000000     0.0733269  
C1122    C      0.611340000000     0.847450000000     0.825590000000    -0.0858801  
C1123    C      0.665470000000     0.697220000000     0.892440000000    -0.0866828  
C1124    C      0.660860000000     0.679900000000     0.885430000000     0.0358813  
C1125    C      0.642870000000     0.677020000000     0.879320000000    -0.0859701  
C1126    C      0.629950000000     0.691140000000     0.880660000000     0.0737887  
C1127    C      0.652280000000     0.710990000000     0.893480000000     0.0745211  
C1128    C      0.674700000000     0.664910000000     0.885140000000     0.0360824  
C1129    C      0.693130000000     0.668790000000     0.881450000000    -0.0870044  
C1130    C      0.706270000000     0.654990000000     0.882890000000     0.0753788  
C1131    C      0.683380000000     0.633240000000     0.890610000000     0.0734564  
C1132    C      0.669860000000     0.646780000000     0.889470000000    -0.0860424  
C1133    C      0.511460000000     0.759030000000     0.896510000000    -0.0868829  
C1134    C      0.502240000000     0.742360000000     0.893940000000     0.0357459  
C1135    C      0.512660000000     0.726520000000     0.890690000000    -0.0857174  
C1136    C      0.531820000000     0.727540000000     0.890640000000     0.073012   
C1137    C      0.530520000000     0.759520000000     0.896520000000     0.0741569  
C1138    C      0.481920000000     0.741660000000     0.895260000000     0.0356198  
C1139    C      0.472800000000     0.752440000000     0.908300000000    -0.0869469  
C1140    C      0.453760000000     0.752480000000     0.909040000000     0.073756   
C1141    C      0.452270000000     0.730860000000     0.884740000000     0.0724076  
C1142    C      0.471420000000     0.730580000000     0.883530000000    -0.085649   
C1143    C      0.601110000000     0.765900000000     0.981940000000    -0.0857282  
C1144    C      0.600020000000     0.749540000000     0.992040000000     0.0359009  
C1145    C      0.599380000000     0.732900000000     0.982410000000    -0.0869469  
C1146    C      0.599090000000     0.732860000000     0.963290000000     0.0744392  
C1147    C      0.601020000000     0.765340000000     0.962720000000     0.0733942  
C1148    C      0.598970000000     0.749630000000     0.012460000000     0.0358982  
C1149    C      0.608980000000     0.762220000000     0.023050000000    -0.0857372  
C1150    C      0.607850000000     0.761670000000     0.042250000000     0.0735129  
C1151    C      0.587190000000     0.736620000000     0.040690000000     0.0748126  
C1152    C      0.587840000000     0.736890000000     0.021590000000    -0.0869496  
H1       H      0.582670000000     0.989240000000     0.745060000000     0.0548659  
H2       H      0.582030000000     0.956100000000     0.741940000000     0.0308624  
H3       H      0.627550000000     0.951260000000     0.778600000000     0.0314841  
H4       H      0.628870000000     0.984670000000     0.781610000000     0.0544924  
H5       H      0.578020000000     0.012440000000     0.773530000000     0.0546702  
H6       H      0.577570000000     0.045720000000     0.771210000000     0.0313445  
H7       H      0.633570000000     0.045700000000     0.753980000000     0.0301774  
H8       H      0.634560000000     0.012340000000     0.756610000000     0.054491   
H9       H      0.487640000000     0.077050000000     0.746270000000     0.0539218  
H10      H      0.454880000000     0.076450000000     0.751370000000     0.0307119  
H11      H      0.448470000000     0.125280000000     0.719400000000     0.0312745  
H12      H      0.481460000000     0.126360000000     0.714090000000     0.0537442  
H13      H      0.510800000000     0.073960000000     0.720940000000     0.0537814  
H14      H      0.544040000000     0.074640000000     0.722500000000     0.0313211  
H15      H      0.542690000000     0.131820000000     0.735700000000     0.0314755  
H16      H      0.509410000000     0.131620000000     0.734250000000     0.0537857  
H17      H      0.375560000000     0.982830000000     0.783590000000     0.0536102  
H18      H      0.378420000000     0.949460000000     0.783260000000     0.0315803  
H19      H      0.404760000000     0.951960000000     0.730850000000     0.0311523  
H20      H      0.402470000000     0.985010000000     0.730860000000     0.0538845  
H21      H      0.393690000000     0.011480000000     0.785170000000     0.0537331  
H22      H      0.393360000000     0.044860000000     0.782870000000     0.0319769  
H23      H      0.379080000000     0.041160000000     0.726030000000     0.0309379  
H24      H      0.378850000000     0.008020000000     0.727890000000     0.0536799  
H25      H      0.484200000000     0.887870000000     0.722100000000     0.0534453  
H26      H      0.450900000000     0.887960000000     0.722490000000     0.0316359  
H27      H      0.451160000000     0.884970000000     0.781130000000     0.0306226  
H28      H      0.484170000000     0.883720000000     0.781310000000     0.0532057  
H29      H      0.508860000000     0.903020000000     0.777290000000     0.0533674  
H30      H      0.541780000000     0.904590000000     0.778170000000     0.0313435  
H31      H      0.545260000000     0.874990000000     0.727600000000     0.0314035  
H32      H      0.512050000000     0.872190000000     0.726690000000     0.0531776  
H33      H      0.767680000000     0.981700000000     0.368050000000     0.0534145  
H34      H      0.767200000000     0.948330000000     0.370680000000     0.0309673  
H35      H      0.722480000000     0.951650000000     0.408450000000     0.031661   
H36      H      0.723050000000     0.984630000000     0.406880000000     0.0536911  
H37      H      0.715420000000     0.008760000000     0.387380000000     0.0534731  
H38      H      0.714990000000     0.041830000000     0.388170000000     0.0309963  
H39      H      0.773330000000     0.043400000000     0.383440000000     0.0312564  
H40      H      0.774430000000     0.009970000000     0.383540000000     0.0535373  
H41      H      0.680200000000     0.120100000000     0.697290000000     0.0536597  
H42      H      0.656680000000     0.119300000000     0.720750000000     0.0302975  
H43      H      0.618290000000     0.097600000000     0.682080000000     0.0297488  
H44      H      0.641660000000     0.097750000000     0.658290000000     0.0535215  
H45      H      0.698270000000     0.097620000000     0.681320000000     0.0539042  
H46      H      0.722350000000     0.094610000000     0.658740000000     0.0311631  
H47      H      0.685990000000     0.112780000000     0.616430000000     0.0319203  
H48      H      0.661500000000     0.116350000000     0.638860000000     0.0535268  
H49      H      0.718440000000     0.121660000000     0.509870000000     0.0533987  
H50      H      0.720080000000     0.119230000000     0.543230000000     0.0311695  
H51      H      0.766550000000     0.083830000000     0.538670000000     0.0314446  
H52      H      0.764890000000     0.085210000000     0.505660000000     0.0535346  
H53      H      0.770580000000     0.104760000000     0.481010000000     0.0534192  
H54      H      0.769800000000     0.103880000000     0.447920000000     0.0309912  
H55      H      0.711280000000     0.105630000000     0.448560000000     0.031128   
H56      H      0.711450000000     0.105620000000     0.482030000000     0.0534811  
H57      H      0.657330000000     0.881670000000     0.647830000000     0.053582   
H58      H      0.680510000000     0.880290000000     0.623950000000     0.0321772  
H59      H      0.722380000000     0.874250000000     0.664530000000     0.0305136  
H60      H      0.699640000000     0.874660000000     0.688680000000     0.0534365  
H61      H      0.640440000000     0.867410000000     0.671700000000     0.053358   
H62      H      0.618380000000     0.873040000000     0.696110000000     0.0320737  
H63      H      0.659200000000     0.901350000000     0.727240000000     0.0309724  
H64      H      0.681280000000     0.896740000000     0.703020000000     0.0534456  
H65      H      0.710520000000     0.878830000000     0.513020000000     0.053428   
H66      H      0.711290000000     0.878720000000     0.546470000000     0.0312058  
H67      H      0.768810000000     0.889620000000     0.545530000000     0.0309728  
H68      H      0.768840000000     0.888800000000     0.512470000000     0.0534403  
H69      H      0.759960000000     0.906810000000     0.487930000000     0.0534874  
H70      H      0.760940000000     0.907910000000     0.454920000000     0.0315552  
H71      H      0.719480000000     0.866610000000     0.451540000000     0.0309009  
H72      H      0.718770000000     0.864340000000     0.484940000000     0.0533125  
H73      H      0.777370000000     0.977340000000     0.609500000000     0.0535843  
H74      H      0.775560000000     0.943930000000     0.610250000000     0.0311466  
H75      H      0.717080000000     0.946790000000     0.610120000000     0.0307982  
H76      H      0.718310000000     0.979880000000     0.610060000000     0.0536158  
H77      H      0.725680000000     0.002990000000     0.588400000000     0.0537303  
H78      H      0.725690000000     0.035990000000     0.585870000000     0.0309866  
H79      H      0.771660000000     0.039430000000     0.622090000000     0.0313588  
H80      H      0.771720000000     0.006130000000     0.625470000000     0.0536414  
H81      H      0.789410000000     0.177440000000     0.624440000000     0.0529451  
H82      H      0.766710000000     0.153780000000     0.619630000000     0.0302296  
H83      H      0.808460000000     0.115860000000     0.603750000000     0.0311441  
H84      H      0.831550000000     0.139490000000     0.607240000000     0.0533336  
H85      H      0.849070000000     0.158800000000     0.625580000000     0.05329    
H86      H      0.871680000000     0.183180000000     0.623790000000     0.0317486  
H87      H      0.830220000000     0.221220000000     0.607390000000     0.0305619  
H88      H      0.807530000000     0.197200000000     0.607910000000     0.0531619  
H89      H      0.980120000000     0.215700000000     0.628760000000     0.0534087  
H90      H      0.946930000000     0.215820000000     0.625400000000     0.0319461  
H91      H      0.950570000000     0.260070000000     0.587000000000     0.0309507  
H92      H      0.983540000000     0.259930000000     0.589440000000     0.0535517  
H93      H      0.009030000000     0.209410000000     0.614090000000     0.0537263  
H94      H      0.042310000000     0.211310000000     0.615340000000     0.0319817  
H95      H      0.039510000000     0.269770000000     0.611200000000     0.0309491  
H96      H      0.006470000000     0.268510000000     0.610640000000     0.0537171  
H97      H      0.786660000000     0.184260000000     0.390900000000     0.0534272  
H98      H      0.763020000000     0.161240000000     0.392140000000     0.0309825  
H99      H      0.798430000000     0.122310000000     0.366260000000     0.0316536  
H100     H      0.822380000000     0.145410000000     0.363940000000     0.0534169  
H101     H      0.843680000000     0.161370000000     0.382280000000     0.0535391  
H102     H      0.867220000000     0.184600000000     0.385880000000     0.0315901  
H103     H      0.827540000000     0.226950000000     0.377740000000     0.0301313  
H104     H      0.803850000000     0.204230000000     0.373050000000     0.0531701  
H105     H      0.865430000000     0.272510000000     0.487310000000     0.053215   
H106     H      0.866790000000     0.272220000000     0.453870000000     0.0312139  
H107     H      0.894360000000     0.220470000000     0.455110000000     0.0314021  
H108     H      0.894130000000     0.220660000000     0.488160000000     0.0534502  
H109     H      0.875900000000     0.217110000000     0.513870000000     0.0532252  
H110     H      0.879080000000     0.216660000000     0.546850000000     0.0307261  
H111     H      0.885150000000     0.275000000000     0.547740000000     0.0316968  
H112     H      0.883070000000     0.275960000000     0.514400000000     0.0535133  
H113     H      0.004090000000     0.213640000000     0.389760000000     0.0536818  
H114     H      0.037410000000     0.214290000000     0.389960000000     0.0316     
H115     H      0.036610000000     0.272460000000     0.397680000000     0.0308768  
H116     H      0.003590000000     0.272510000000     0.396710000000     0.053604   
H117     H      0.978440000000     0.264250000000     0.414700000000     0.0533887  
H118     H      0.945420000000     0.265120000000     0.414730000000     0.030808   
H119     H      0.943580000000     0.222370000000     0.374540000000     0.0317029  
H120     H      0.976890000000     0.221630000000     0.373480000000     0.0534625  
H121     H      0.098570000000     0.219570000000     0.488580000000     0.0535618  
H122     H      0.097250000000     0.218940000000     0.455500000000     0.0309414  
H123     H      0.104080000000     0.277190000000     0.453430000000     0.0312613  
H124     H      0.104760000000     0.278480000000     0.486900000000     0.0535614  
H125     H      0.121290000000     0.270500000000     0.514860000000     0.0534028  
H126     H      0.120070000000     0.269580000000     0.548370000000     0.0306073  
H127     H      0.078980000000     0.227830000000     0.545970000000     0.0311779  
H128     H      0.079310000000     0.228810000000     0.512910000000     0.053638   
H129     H      0.141740000000     0.158400000000     0.613870000000     0.0532043  
H130     H      0.118260000000     0.181880000000     0.612500000000     0.0313585  
H131     H      0.159150000000     0.223790000000     0.614450000000     0.0305559  
H132     H      0.182900000000     0.200920000000     0.617190000000     0.0529922  
H133     H      0.198910000000     0.180070000000     0.600280000000     0.0530814  
H134     H      0.222460000000     0.156950000000     0.599340000000     0.0306017  
H135     H      0.187600000000     0.119130000000     0.627460000000     0.031385   
H136     H      0.163920000000     0.142400000000     0.629850000000     0.0531242  
H137     H      0.326540000000     0.124990000000     0.647780000000     0.0533207  
H138     H      0.302400000000     0.120770000000     0.625170000000     0.0314984  
H139     H      0.269700000000     0.092650000000     0.664940000000     0.0302268  
H140     H      0.293630000000     0.096040000000     0.687640000000     0.0533883  
H141     H      0.309660000000     0.116910000000     0.706840000000     0.0531777  
H142     H      0.334160000000     0.115480000000     0.729310000000     0.0296785  
H143     H      0.373330000000     0.106890000000     0.686520000000     0.0318025  
H144     H      0.349170000000     0.107590000000     0.663710000000     0.0537899  
H145     H      0.331190000000     0.885810000000     0.649710000000     0.0531553  
H146     H      0.306970000000     0.886790000000     0.626770000000     0.0305382  
H147     H      0.266680000000     0.878820000000     0.668630000000     0.0317194  
H148     H      0.290380000000     0.876990000000     0.691730000000     0.0535061  
H149     H      0.310430000000     0.897260000000     0.706770000000     0.0534631  
H150     H      0.333710000000     0.898940000000     0.730190000000     0.0308839  
H151     H      0.371480000000     0.870540000000     0.695450000000     0.0311983  
H152     H      0.348120000000     0.867970000000     0.671680000000     0.0532867  
H153     H      0.229890000000     0.980810000000     0.638400000000     0.0540443  
H154     H      0.230640000000     0.947310000000     0.638650000000     0.0297057  
H155     H      0.231350000000     0.946590000000     0.579920000000     0.0306515  
H156     H      0.230850000000     0.979880000000     0.579210000000     0.0542319  
H157     H      0.255980000000     0.002620000000     0.589970000000     0.0542459  
H158     H      0.259890000000     0.035650000000     0.589300000000     0.0307212  
H159     H      0.214220000000     0.042330000000     0.625480000000     0.0317612  
H160     H      0.210130000000     0.009060000000     0.626700000000     0.0541585  
H161     H      0.284300000000     0.879050000000     0.491270000000     0.0538312  
H162     H      0.280510000000     0.883460000000     0.458230000000     0.0315497  
H163     H      0.222440000000     0.886800000000     0.465080000000     0.0307917  
H164     H      0.225690000000     0.882380000000     0.497850000000     0.0543315  
H165     H      0.279210000000     0.897620000000     0.520440000000     0.0539861  
H166     H      0.278360000000     0.897610000000     0.553890000000     0.0314605  
H167     H      0.234890000000     0.858290000000     0.553140000000     0.0310249  
H168     H      0.235420000000     0.857900000000     0.519830000000     0.0539865  
H169     H      0.177560000000     0.197880000000     0.394290000000     0.0537495  
H170     H      0.155070000000     0.222000000000     0.396260000000     0.0308638  
H171     H      0.113860000000     0.186040000000     0.375130000000     0.0318415  
H172     H      0.136340000000     0.161520000000     0.372230000000     0.0534243  
H173     H      0.154020000000     0.140760000000     0.390390000000     0.0535375  
H174     H      0.177620000000     0.117320000000     0.392800000000     0.0305549  
H175     H      0.218500000000     0.156590000000     0.377910000000     0.0314882  
H176     H      0.195380000000     0.180040000000     0.374480000000     0.0536413  
H177     H      0.252480000000     0.007510000000     0.375680000000     0.0542965  
H178     H      0.252410000000     0.040710000000     0.373880000000     0.0309052  
H179     H      0.209180000000     0.043320000000     0.413430000000     0.0298025  
H180     H      0.208840000000     0.009850000000     0.415490000000     0.0538031  
H181     H      0.262010000000     0.986550000000     0.401950000000     0.0542227  
H182     H      0.265200000000     0.953640000000     0.405340000000     0.0306877  
H183     H      0.207310000000     0.946850000000     0.399560000000     0.0317039  
H184     H      0.203600000000     0.980030000000     0.396280000000     0.0541645  
H185     H      0.274210000000     0.086060000000     0.487540000000     0.0537442  
H186     H      0.272750000000     0.086330000000     0.454080000000     0.0297638  
H187     H      0.231700000000     0.128150000000     0.455880000000     0.0305184  
H188     H      0.232790000000     0.128220000000     0.489170000000     0.0539985  
H189     H      0.281580000000     0.105310000000     0.516000000000     0.0540683  
H190     H      0.279070000000     0.102300000000     0.549300000000     0.0320569  
H191     H      0.220650000000     0.101400000000     0.545120000000     0.0306657  
H192     H      0.222660000000     0.104480000000     0.512050000000     0.0541298  
H193     H      0.981500000000     0.603820000000     0.724380000000     0.0534285  
H194     H      0.948520000000     0.602340000000     0.724290000000     0.0309473  
H195     H      0.947580000000     0.604470000000     0.782970000000     0.0312444  
H196     H      0.980930000000     0.605010000000     0.783690000000     0.0534594  
H197     H      0.008740000000     0.621220000000     0.777370000000     0.0534983  
H198     H      0.042060000000     0.619000000000     0.776610000000     0.0311763  
H199     H      0.038950000000     0.583380000000     0.730040000000     0.0315639  
H200     H      0.006030000000     0.584520000000     0.730850000000     0.0537481  
H201     H      0.878850000000     0.305180000000     0.708480000000     0.0533661  
H202     H      0.881170000000     0.328720000000     0.731780000000     0.0304047  
H203     H      0.883780000000     0.370230000000     0.690370000000     0.0317137  
H204     H      0.882350000000     0.346940000000     0.666530000000     0.0535241  
H205     H      0.865230000000     0.324010000000     0.650820000000     0.0533307  
H206     H      0.867790000000     0.300270000000     0.627410000000     0.0310721  
H207     H      0.899600000000     0.267230000000     0.663980000000     0.0308797  
H208     H      0.898030000000     0.290720000000     0.687250000000     0.0533131  
H209     H      0.885000000000     0.506950000000     0.718850000000     0.0535802  
H210     H      0.885150000000     0.540380000000     0.719620000000     0.0312285  
H211     H      0.887980000000     0.539350000000     0.778270000000     0.0309607  
H212     H      0.886960000000     0.506290000000     0.778140000000     0.0534096  
H213     H      0.906170000000     0.481680000000     0.771300000000     0.0536501  
H214     H      0.906840000000     0.448650000000     0.772330000000     0.0313726  
H215     H      0.870410000000     0.445760000000     0.726430000000     0.0313301  
H216     H      0.868690000000     0.479160000000     0.725470000000     0.0534798  
H217     H      0.127120000000     0.342850000000     0.672900000000     0.0534055  
H218     H      0.124560000000     0.365630000000     0.697150000000     0.0318302  
H219     H      0.097700000000     0.326550000000     0.731670000000     0.0307526  
H220     H      0.099100000000     0.303810000000     0.707640000000     0.0533917  
H221     H      0.116760000000     0.283820000000     0.690390000000     0.0531747  
H222     H      0.113050000000     0.261600000000     0.665990000000     0.0303639  
H223     H      0.106780000000     0.304770000000     0.626740000000     0.0320103  
H224     H      0.109390000000     0.327490000000     0.650930000000     0.0537424  
H225     H      0.981470000000     0.363750000000     0.779450000000     0.0532823  
H226     H      0.948140000000     0.365910000000     0.778390000000     0.0308964  
H227     H      0.951650000000     0.402100000000     0.732300000000     0.0316217  
H228     H      0.984550000000     0.400990000000     0.733400000000     0.0536113  
H229     H      0.009030000000     0.381630000000     0.726810000000     0.0535563  
H230     H      0.042010000000     0.383010000000     0.726860000000     0.0309546  
H231     H      0.042750000000     0.380370000000     0.785510000000     0.0311873  
H232     H      0.009370000000     0.379890000000     0.786100000000     0.0535796  
H233     H      0.106170000000     0.477310000000     0.719740000000     0.0535482  
H234     H      0.106000000000     0.443900000000     0.721240000000     0.0313022  
H235     H      0.101550000000     0.446200000000     0.779750000000     0.030953   
H236     H      0.102560000000     0.479260000000     0.778920000000     0.0534339  
H237     H      0.083450000000     0.503640000000     0.770950000000     0.0537172  
H238     H      0.082750000000     0.536670000000     0.771350000000     0.0315731  
H239     H      0.120580000000     0.538750000000     0.726570000000     0.0310019  
H240     H      0.122310000000     0.505320000000     0.726250000000     0.0533558  
H241     H      0.198660000000     0.808460000000     0.403510000000     0.0531629  
H242     H      0.221970000000     0.831730000000     0.406470000000     0.0306259  
H243     H      0.187760000000     0.870600000000     0.378960000000     0.0316346  
H244     H      0.164300000000     0.847320000000     0.374820000000     0.0533272  
H245     H      0.141970000000     0.830740000000     0.390780000000     0.053516   
H246     H      0.118480000000     0.807230000000     0.391410000000     0.0318014  
H247     H      0.159240000000     0.765460000000     0.386140000000     0.0303668  
H248     H      0.183020000000     0.788500000000     0.384390000000     0.0531455  
H249     H      0.807510000000     0.793310000000     0.399090000000     0.0534544  
H250     H      0.830700000000     0.769830000000     0.400760000000     0.0309057  
H251     H      0.868630000000     0.804490000000     0.372510000000     0.0314614  
H252     H      0.845350000000     0.828220000000     0.369760000000     0.0534534  
H253     H      0.828900000000     0.850340000000     0.386870000000     0.0534678  
H254     H      0.805090000000     0.873590000000     0.388400000000     0.0312776  
H255     H      0.763940000000     0.832260000000     0.382660000000     0.0308423  
H256     H      0.787210000000     0.808830000000     0.380090000000     0.0533457  
H257     H      0.982070000000     0.720450000000     0.391060000000     0.0535099  
H258     H      0.949060000000     0.720280000000     0.391790000000     0.031038   
H259     H      0.948030000000     0.778930000000     0.389890000000     0.0311917  
H260     H      0.981410000000     0.779700000000     0.389920000000     0.0535014  
H261     H      0.009450000000     0.772900000000     0.373470000000     0.053621   
H262     H      0.042770000000     0.771800000000     0.375720000000     0.0312413  
H263     H      0.039080000000     0.726340000000     0.412680000000     0.0314423  
H264     H      0.006140000000     0.727430000000     0.411360000000     0.0538568  
H265     H      0.138370000000     0.829070000000     0.628930000000     0.0533715  
H266     H      0.115850000000     0.804730000000     0.625610000000     0.0317902  
H267     H      0.158280000000     0.766490000000     0.612480000000     0.0305437  
H268     H      0.180980000000     0.790440000000     0.614810000000     0.0535132  
H269     H      0.197370000000     0.810170000000     0.633820000000     0.0533756  
H270     H      0.220740000000     0.833500000000     0.630870000000     0.030936   
H271     H      0.181390000000     0.871260000000     0.609390000000     0.0299819  
H272     H      0.157730000000     0.847950000000     0.611220000000     0.0534795  
H273     H      0.124600000000     0.662900000000     0.650560000000     0.0533248  
H274     H      0.121580000000     0.687150000000     0.627720000000     0.031273   
H275     H      0.089100000000     0.718670000000     0.665040000000     0.0308859  
H276     H      0.091160000000     0.694680000000     0.687750000000     0.0534251  
H277     H      0.111060000000     0.680330000000     0.708550000000     0.0534766  
H278     H      0.109220000000     0.656390000000     0.731450000000     0.0306838  
H279     H      0.106840000000     0.615530000000     0.689380000000     0.031473   
H280     H      0.107830000000     0.639250000000     0.665910000000     0.0534593  
H281     H      0.123430000000     0.718360000000     0.488070000000     0.0533913  
H282     H      0.121130000000     0.719170000000     0.454640000000     0.0310292  
H283     H      0.087950000000     0.767410000000     0.457840000000     0.0317106  
H284     H      0.089330000000     0.766700000000     0.490870000000     0.0537811  
H285     H      0.109340000000     0.772010000000     0.515550000000     0.0533993  
H286     H      0.107330000000     0.772050000000     0.548650000000     0.0306782  
H287     H      0.105010000000     0.713430000000     0.549240000000     0.0317786  
H288     H      0.106200000000     0.712830000000     0.515810000000     0.0537038  
H289     H      0.804570000000     0.783600000000     0.613670000000     0.0532574  
H290     H      0.828880000000     0.761290000000     0.611030000000     0.0308509  
H291     H      0.869040000000     0.803800000000     0.614820000000     0.0313453  
H292     H      0.845040000000     0.826800000000     0.616350000000     0.053393   
H293     H      0.821140000000     0.840840000000     0.632460000000     0.0534506  
H294     H      0.797200000000     0.863890000000     0.630050000000     0.0318661  
H295     H      0.766060000000     0.828410000000     0.595240000000     0.0307802  
H296     H      0.789930000000     0.805600000000     0.596400000000     0.0532901  
H297     H      0.871240000000     0.700830000000     0.688400000000     0.0532869  
H298     H      0.874580000000     0.723540000000     0.664400000000     0.0303479  
H299     H      0.882720000000     0.681200000000     0.624580000000     0.0320308  
H300     H      0.880460000000     0.658030000000     0.648380000000     0.0538023  
H301     H      0.862950000000     0.641820000000     0.670140000000     0.0534742  
H302     H      0.866130000000     0.618870000000     0.694180000000     0.0317495  
H303     H      0.891940000000     0.658360000000     0.729070000000     0.0309505  
H304     H      0.889870000000     0.681270000000     0.705280000000     0.0535382  
H305     H      0.910150000000     0.759910000000     0.512570000000     0.0534781  
H306     H      0.910500000000     0.759910000000     0.545660000000     0.0309964  
H307     H      0.868980000000     0.718550000000     0.546840000000     0.0307838  
H308     H      0.867650000000     0.718690000000     0.513370000000     0.0534081  
H309     H      0.883420000000     0.711430000000     0.485200000000     0.0535407  
H310     H      0.883280000000     0.713710000000     0.451810000000     0.0316354  
H311     H      0.891910000000     0.771650000000     0.455390000000     0.0308725  
H312     H      0.891360000000     0.770070000000     0.488480000000     0.0535686  
H313     H      0.979390000000     0.777380000000     0.614880000000     0.0535925  
H314     H      0.946090000000     0.775410000000     0.615470000000     0.031881   
H315     H      0.949090000000     0.716970000000     0.611220000000     0.0310881  
H316     H      0.982130000000     0.718290000000     0.611280000000     0.0535418  
H317     H      0.008080000000     0.770920000000     0.630210000000     0.0536113  
H318     H      0.041330000000     0.770910000000     0.627340000000     0.0319285  
H319     H      0.038330000000     0.727100000000     0.588380000000     0.0309342  
H320     H      0.005340000000     0.727110000000     0.590370000000     0.0537428  
H321     H      0.183510000000     0.390340000000     0.800000000000     0.0535984  
H322     H      0.160610000000     0.390420000000     0.776110000000     0.0309464  
H323     H      0.121370000000     0.367130000000     0.812940000000     0.0316048  
H324     H      0.144280000000     0.366140000000     0.837200000000     0.0534781  
H325     H      0.160740000000     0.385890000000     0.857410000000     0.0534564  
H326     H      0.184060000000     0.388860000000     0.881010000000     0.0302942  
H327     H      0.225750000000     0.376070000000     0.841830000000     0.0317199  
H328     H      0.202890000000     0.372190000000     0.818110000000     0.0534343  
H329     H      0.242850000000     0.411390000000     0.012040000000     0.054645   
H330     H      0.246520000000     0.412560000000     0.045130000000     0.0307326  
H331     H      0.211370000000     0.365990000000     0.051210000000     0.0317435  
H332     H      0.207800000000     0.364160000000     0.017860000000     0.054329   
H333     H      0.232230000000     0.358130000000     0.990480000000     0.0543128  
H334     H      0.235370000000     0.358160000000     0.957120000000     0.0298601  
H335     H      0.218140000000     0.414230000000     0.955220000000     0.0313359  
H336     H      0.215240000000     0.414730000000     0.988460000000     0.0544456  
H337     H      0.218030000000     0.506950000000     0.095910000000     0.0536449  
H338     H      0.217930000000     0.540000000000     0.094630000000     0.0314485  
H339     H      0.265980000000     0.542180000000     0.128120000000     0.0310159  
H340     H      0.266220000000     0.508760000000     0.130240000000     0.0534441  
H341     H      0.271310000000     0.481130000000     0.112420000000     0.0537484  
H342     H      0.270200000000     0.447750000000     0.111330000000     0.032074   
H343     H      0.211750000000     0.449210000000     0.114400000000     0.0307283  
H344     H      0.212320000000     0.482320000000     0.116200000000     0.0534579  
H345     H      0.164220000000     0.620740000000     0.852710000000     0.0532854  
H346     H      0.188150000000     0.618170000000     0.875890000000     0.0310604  
H347     H      0.218990000000     0.583010000000     0.840470000000     0.0306537  
H348     H      0.195280000000     0.584620000000     0.817470000000     0.0532863  
H349     H      0.182290000000     0.604470000000     0.795680000000     0.053403   
H350     H      0.158850000000     0.603290000000     0.772280000000     0.0307187  
H351     H      0.117100000000     0.603960000000     0.813450000000     0.031513   
H352     H      0.140270000000     0.604340000000     0.837430000000     0.0535418  
H353     H      0.256960000000     0.480630000000     0.867620000000     0.0542718  
H354     H      0.255120000000     0.447200000000     0.868100000000     0.0300323  
H355     H      0.269880000000     0.446890000000     0.924950000000     0.0313569  
H356     H      0.271490000000     0.480190000000     0.924990000000     0.0542731  
H357     H      0.243830000000     0.502940000000     0.920330000000     0.0546015  
H358     H      0.239230000000     0.535910000000     0.920720000000     0.0308713  
H359     H      0.275350000000     0.542020000000     0.874870000000     0.0319371  
H360     H      0.279900000000     0.508800000000     0.873840000000     0.0542964  
H361     H      0.211740000000     0.602260000000     0.987620000000     0.0538374  
H362     H      0.213230000000     0.600770000000     0.954240000000     0.0318161  
H363     H      0.271340000000     0.607680000000     0.956160000000     0.0306867  
H364     H      0.270350000000     0.609830000000     0.989280000000     0.0535266  
H365     H      0.265520000000     0.589270000000     0.014130000000     0.0537583  
H366     H      0.265310000000     0.588330000000     0.047230000000     0.0312193  
H367     H      0.215600000000     0.619330000000     0.048490000000     0.031327   
H368     H      0.215610000000     0.621020000000     0.015020000000     0.0535147  
H369     H      0.176310000000     0.600050000000     0.205860000000     0.0531158  
H370     H      0.152720000000     0.598870000000     0.228970000000     0.0304708  
H371     H      0.114180000000     0.622380000000     0.191570000000     0.0313561  
H372     H      0.137800000000     0.624960000000     0.168270000000     0.0531618  
H373     H      0.154930000000     0.608300000000     0.147450000000     0.0533174  
H374     H      0.178760000000     0.606220000000     0.124380000000     0.0315854  
H375     H      0.219790000000     0.613510000000     0.165590000000     0.0305257  
H376     H      0.196470000000     0.616970000000     0.188870000000     0.0529921  
H377     H      0.119240000000     0.643520000000     0.331140000000     0.0532992  
H378     H      0.115180000000     0.620690000000     0.307030000000     0.0310784  
H379     H      0.081350000000     0.657950000000     0.276910000000     0.0306367  
H380     H      0.084480000000     0.680680000000     0.300810000000     0.0532826  
H381     H      0.105570000000     0.701370000000     0.313690000000     0.0533855  
H382     H      0.105770000000     0.724610000000     0.337380000000     0.0307881  
H383     H      0.104960000000     0.683190000000     0.378960000000     0.0314246  
H384     H      0.103970000000     0.659400000000     0.355540000000     0.0533958  
H385     H      0.870740000000     0.684700000000     0.292690000000     0.0535496  
H386     H      0.873210000000     0.661220000000     0.269360000000     0.0318053  
H387     H      0.886930000000     0.621310000000     0.310140000000     0.0300631  
H388     H      0.885370000000     0.644670000000     0.333910000000     0.0535493  
H389     H      0.866670000000     0.665110000000     0.351380000000     0.0535348  
H390     H      0.869040000000     0.689090000000     0.374500000000     0.0319698  
H391     H      0.891640000000     0.725770000000     0.334660000000     0.0308213  
H392     H      0.890180000000     0.702130000000     0.311490000000     0.0536241  
H393     H      0.976820000000     0.633900000000     0.237470000000     0.0543701  
H394     H      0.943450000000     0.634180000000     0.238780000000     0.0300857  
H395     H      0.942050000000     0.577490000000     0.223610000000     0.0311858  
H396     H      0.975320000000     0.576680000000     0.222580000000     0.0543212  
H397     H      0.997580000000     0.581040000000     0.251190000000     0.0542646  
H398     H      0.030390000000     0.579850000000     0.256320000000     0.0309435  
H399     H      0.038230000000     0.624990000000     0.219580000000     0.0320754  
H400     H      0.005180000000     0.626850000000     0.214530000000     0.054249   
H401     H      0.888840000000     0.297160000000     0.315640000000     0.0535443  
H402     H      0.892200000000     0.272890000000     0.337950000000     0.0311389  
H403     H      0.865120000000     0.305490000000     0.378540000000     0.0318337  
H404     H      0.860950000000     0.330070000000     0.356260000000     0.0534903  
H405     H      0.867180000000     0.312730000000     0.297150000000     0.0533306  
H406     H      0.867970000000     0.336880000000     0.274320000000     0.0299355  
H407     H      0.877610000000     0.376850000000     0.316200000000     0.03133    
H408     H      0.877600000000     0.352930000000     0.339450000000     0.0534604  
H409     H      0.856360000000     0.485470000000     0.282130000000     0.0545586  
H410     H      0.857480000000     0.452110000000     0.278610000000     0.0316174  
H411     H      0.902730000000     0.457270000000     0.241650000000     0.0308457  
H412     H      0.902280000000     0.490370000000     0.245280000000     0.0548053  
H413     H      0.907330000000     0.512920000000     0.274260000000     0.0546498  
H414     H      0.908080000000     0.546230000000     0.272750000000     0.0313142  
H415     H      0.851980000000     0.547160000000     0.255870000000     0.0300304  
H416     H      0.850690000000     0.513740000000     0.257680000000     0.0543507  
H417     H      0.103180000000     0.347730000000     0.335260000000     0.0537911  
H418     H      0.100330000000     0.371490000000     0.312110000000     0.0322795  
H419     H      0.104690000000     0.331310000000     0.269550000000     0.0305024  
H420     H      0.108580000000     0.307320000000     0.292180000000     0.0532927  
H421     H      0.121090000000     0.325610000000     0.350500000000     0.053444   
H422     H      0.118910000000     0.301730000000     0.373730000000     0.0315812  
H423     H      0.089800000000     0.267340000000     0.336160000000     0.0309297  
H424     H      0.090870000000     0.291000000000     0.313030000000     0.0534699  
H425     H      0.135130000000     0.381410000000     0.166390000000     0.0531177  
H426     H      0.111260000000     0.383480000000     0.189400000000     0.031123   
H427     H      0.151210000000     0.380120000000     0.232150000000     0.0305588  
H428     H      0.175300000000     0.376500000000     0.209770000000     0.0528568  
H429     H      0.192660000000     0.392260000000     0.189500000000     0.0530136  
H430     H      0.216470000000     0.393050000000     0.166640000000     0.0301983  
H431     H      0.180850000000     0.367910000000     0.127440000000     0.0313682  
H432     H      0.156930000000     0.365510000000     0.150410000000     0.0531362  
H433     H      0.971150000000     0.369830000000     0.224650000000     0.053161   
H434     H      0.938040000000     0.373980000000     0.225820000000     0.0312067  
H435     H      0.943350000000     0.405300000000     0.275180000000     0.0314974  
H436     H      0.976140000000     0.402300000000     0.274040000000     0.0535038  
H437     H      0.999830000000     0.384280000000     0.219420000000     0.0530213  
H438     H      0.033160000000     0.383760000000     0.219830000000     0.031639   
H439     H      0.032800000000     0.382210000000     0.278520000000     0.0308926  
H440     H      0.999780000000     0.381640000000     0.278700000000     0.0528239  
H441     H      0.076830000000     0.484300000000     0.231050000000     0.0535964  
H442     H      0.075440000000     0.451220000000     0.230800000000     0.0309914  
H443     H      0.110330000000     0.448690000000     0.277900000000     0.0308894  
H444     H      0.112410000000     0.482130000000     0.278340000000     0.0535738  
H445     H      0.094550000000     0.510270000000     0.283620000000     0.0537937  
H446     H      0.094620000000     0.543690000000     0.282050000000     0.0318169  
H447     H      0.098050000000     0.541300000000     0.223470000000     0.0306769  
H448     H      0.098480000000     0.508140000000     0.224510000000     0.0536289  
H449     H      0.615420000000     0.142440000000     0.830440000000     0.0529356  
H450     H      0.613410000000     0.119580000000     0.806150000000     0.0299305  
H451     H      0.594750000000     0.160570000000     0.768530000000     0.0326427  
H452     H      0.595720000000     0.183460000000     0.792410000000     0.0535768  
H453     H      0.615290000000     0.201270000000     0.810270000000     0.0535359  
H454     H      0.613020000000     0.224970000000     0.833360000000     0.0317139  
H455     H      0.596700000000     0.185320000000     0.873430000000     0.030447   
H456     H      0.597890000000     0.161220000000     0.850380000000     0.053189   
H457     H      0.580600000000     0.216920000000     0.980870000000     0.0541187  
H458     H      0.580130000000     0.218090000000     0.947400000000     0.0301221  
H459     H      0.627080000000     0.253180000000     0.947620000000     0.0302702  
H460     H      0.627760000000     0.252500000000     0.980970000000     0.0542172  
H461     H      0.601120000000     0.207400000000     0.009220000000     0.0542186  
H462     H      0.598370000000     0.211010000000     0.042470000000     0.031623   
H463     H      0.600850000000     0.269370000000     0.036640000000     0.0305975  
H464     H      0.603960000000     0.266230000000     0.003630000000     0.0544037  
H465     H      0.344940000000     0.332780000000     0.109220000000     0.0534483  
H466     H      0.368390000000     0.309040000000     0.107750000000     0.0308635  
H467     H      0.328440000000     0.268120000000     0.120640000000     0.031022   
H468     H      0.304920000000     0.291350000000     0.122840000000     0.0536158  
H469     H      0.288600000000     0.309680000000     0.101410000000     0.0535911  
H470     H      0.264280000000     0.332010000000     0.099570000000     0.0307571  
H471     H      0.298350000000     0.372360000000     0.125090000000     0.0310902  
H472     H      0.323100000000     0.350020000000     0.127660000000     0.053289   
H473     H      0.475230000000     0.280950000000     0.088250000000     0.0535169  
H474     H      0.441820000000     0.279460000000     0.090080000000     0.0300114  
H475     H      0.445530000000     0.231060000000     0.123110000000     0.0319348  
H476     H      0.478590000000     0.232170000000     0.121630000000     0.0541935  
H477     H      0.504730000000     0.284500000000     0.107490000000     0.0539323  
H478     H      0.538010000000     0.282070000000     0.104580000000     0.0313886  
H479     H      0.533050000000     0.224790000000     0.092750000000     0.0309407  
H480     H      0.500120000000     0.226720000000     0.095540000000     0.0540793  
H481     H      0.331980000000     0.348410000000     0.908510000000     0.0529615  
H482     H      0.308040000000     0.371540000000     0.909180000000     0.0299005  
H483     H      0.271040000000     0.334480000000     0.882820000000     0.0312044  
H484     H      0.294750000000     0.311450000000     0.880960000000     0.0534153  
H485     H      0.310210000000     0.290830000000     0.899570000000     0.0534524  
H486     H      0.332990000000     0.266880000000     0.899760000000     0.0325068  
H487     H      0.375530000000     0.306510000000     0.892340000000     0.0296097  
H488     H      0.352920000000     0.330990000000     0.891110000000     0.052833   
H489     H      0.375870000000     0.140350000000     0.833390000000     0.0536007  
H490     H      0.377830000000     0.118280000000     0.808320000000     0.0314748  
H491     H      0.401540000000     0.159230000000     0.773600000000     0.0306251  
H492     H      0.399900000000     0.181490000000     0.798250000000     0.0536714  
H493     H      0.396550000000     0.157980000000     0.854200000000     0.0534533  
H494     H      0.396940000000     0.181250000000     0.878220000000     0.0292205  
H495     H      0.377550000000     0.221420000000     0.840060000000     0.0309769  
H496     H      0.376840000000     0.198590000000     0.815870000000     0.0538884  
H497     H      0.412380000000     0.220280000000     0.990060000000     0.0532851  
H498     H      0.415270000000     0.222510000000     0.956920000000     0.0319766  
H499     H      0.357400000000     0.229820000000     0.951850000000     0.0314402  
H500     H      0.353900000000     0.227220000000     0.984890000000     0.0532319  
H501     H      0.361460000000     0.247500000000     0.009940000000     0.0535705  
H502     H      0.361140000000     0.252170000000     0.042830000000     0.0301576  
H503     H      0.400450000000     0.209260000000     0.049910000000     0.0296429  
H504     H      0.400920000000     0.203940000000     0.016890000000     0.0531932  
H505     H      0.477470000000     0.263750000000     0.858490000000     0.0528851  
H506     H      0.444810000000     0.259030000000     0.862440000000     0.0304329  
H507     H      0.450390000000     0.265240000000     0.920550000000     0.0321543  
H508     H      0.483120000000     0.269200000000     0.917300000000     0.0532333  
H509     H      0.508710000000     0.286240000000     0.907460000000     0.0529796  
H510     H      0.541760000000     0.282470000000     0.906960000000     0.0302392  
H511     H      0.537180000000     0.243880000000     0.862970000000     0.0302981  
H512     H      0.504220000000     0.246640000000     0.863530000000     0.053166   
H513     H      0.345910000000     0.885220000000     0.339600000000     0.053326   
H514     H      0.368640000000     0.886780000000     0.315280000000     0.0314237  
H515     H      0.326270000000     0.885870000000     0.274780000000     0.0309263  
H516     H      0.303280000000     0.883290000000     0.298490000000     0.0532095  
H517     H      0.289000000000     0.901260000000     0.320470000000     0.0533179  
H518     H      0.266060000000     0.901970000000     0.344270000000     0.0307437  
H519     H      0.300410000000     0.870050000000     0.379480000000     0.0314677  
H520     H      0.323530000000     0.868200000000     0.355510000000     0.0533374  
H521     H      0.303400000000     0.097120000000     0.299420000000     0.0538472  
H522     H      0.326040000000     0.095750000000     0.275360000000     0.0308628  
H523     H      0.363000000000     0.127900000000     0.307610000000     0.031601   
H524     H      0.340240000000     0.130170000000     0.331970000000     0.05348    
H525     H      0.325350000000     0.112130000000     0.355200000000     0.0535609  
H526     H      0.302070000000     0.109750000000     0.379000000000     0.0304847  
H527     H      0.259920000000     0.113370000000     0.338410000000     0.0315862  
H528     H      0.282590000000     0.116590000000     0.314470000000     0.0537597  
H529     H      0.356410000000     0.166290000000     0.147660000000     0.0533121  
H530     H      0.361110000000     0.189520000000     0.124150000000     0.03066    
H531     H      0.387150000000     0.224490000000     0.163410000000     0.0317605  
H532     H      0.383540000000     0.201480000000     0.186920000000     0.0537226  
H533     H      0.372580000000     0.144390000000     0.165010000000     0.0536483  
H534     H      0.374100000000     0.121320000000     0.188940000000     0.0325519  
H535     H      0.366300000000     0.162550000000     0.229970000000     0.030353   
H536     H      0.363690000000     0.185880000000     0.206450000000     0.0532341  
H537     H      0.375970000000     0.012560000000     0.219670000000     0.0533112  
H538     H      0.376330000000     0.045970000000     0.220240000000     0.0313394  
H539     H      0.389670000000     0.045240000000     0.277400000000     0.0307545  
H540     H      0.388390000000     0.012210000000     0.277700000000     0.0532669  
H541     H      0.404870000000     0.986900000000     0.268510000000     0.0534431  
H542     H      0.404750000000     0.953910000000     0.269800000000     0.0312932  
H543     H      0.362180000000     0.951720000000     0.229550000000     0.0307664  
H544     H      0.361100000000     0.985130000000     0.228610000000     0.053254   
H545     H      0.601590000000     0.144660000000     0.160430000000     0.0534998  
H546     H      0.599990000000     0.121500000000     0.184380000000     0.0315915  
H547     H      0.603140000000     0.163170000000     0.225590000000     0.0307484  
H548     H      0.605640000000     0.186580000000     0.202190000000     0.053301   
H549     H      0.586930000000     0.201400000000     0.180850000000     0.053366   
H550     H      0.585620000000     0.224660000000     0.157290000000     0.0306253  
H551     H      0.616650000000     0.190620000000     0.120980000000     0.0315236  
H552     H      0.618970000000     0.167150000000     0.144620000000     0.0534028  
H553     H      0.676960000000     0.117100000000     0.288060000000     0.0531999  
H554     H      0.652750000000     0.114580000000     0.265600000000     0.0306975  
H555     H      0.612920000000     0.109840000000     0.308350000000     0.0313815  
H556     H      0.636930000000     0.111220000000     0.331370000000     0.0534717  
H557     H      0.659620000000     0.127790000000     0.347120000000     0.053423   
H558     H      0.683940000000     0.124730000000     0.369740000000     0.0315613  
H559     H      0.717250000000     0.096640000000     0.330470000000     0.0309461  
H560     H      0.693150000000     0.098520000000     0.307970000000     0.0534432  
H561     H      0.499120000000     0.096880000000     0.226830000000     0.0537619  
H562     H      0.531990000000     0.094670000000     0.225320000000     0.0314097  
H563     H      0.537070000000     0.125970000000     0.274740000000     0.0313665  
H564     H      0.503820000000     0.129040000000     0.276430000000     0.0533738  
H565     H      0.475840000000     0.111900000000     0.281890000000     0.0535322  
H566     H      0.442460000000     0.110950000000     0.281850000000     0.0310081  
H567     H      0.442040000000     0.116290000000     0.223370000000     0.0307644  
H568     H      0.475040000000     0.118060000000     0.222910000000     0.0534331  
H569     H      0.639820000000     0.867340000000     0.331750000000     0.0535042  
H570     H      0.616380000000     0.870540000000     0.308220000000     0.0315743  
H571     H      0.654320000000     0.898690000000     0.273480000000     0.0308753  
H572     H      0.677670000000     0.896590000000     0.296780000000     0.0535294  
H573     H      0.697940000000     0.877390000000     0.312030000000     0.053263   
H574     H      0.721360000000     0.879670000000     0.335360000000     0.030745   
H575     H      0.680480000000     0.885240000000     0.377010000000     0.0314675  
H576     H      0.656530000000     0.884020000000     0.353900000000     0.0534591  
H577     H      0.502970000000     0.885100000000     0.224800000000     0.0534491  
H578     H      0.535910000000     0.887280000000     0.224520000000     0.0309714  
H579     H      0.537030000000     0.888460000000     0.283220000000     0.0311992  
H580     H      0.503690000000     0.887240000000     0.284080000000     0.0535216  
H581     H      0.476110000000     0.870180000000     0.278760000000     0.0533896  
H582     H      0.442760000000     0.872030000000     0.278130000000     0.0310489  
H583     H      0.445210000000     0.905080000000     0.229660000000     0.0317058  
H584     H      0.478130000000     0.904280000000     0.230270000000     0.0536533  
H585     H      0.599640000000     0.984070000000     0.215950000000     0.0534739  
H586     H      0.599650000000     0.950660000000     0.217750000000     0.0312966  
H587     H      0.594670000000     0.953470000000     0.276190000000     0.0309948  
H588     H      0.595460000000     0.986520000000     0.275070000000     0.0533914  
H589     H      0.576490000000     0.010910000000     0.266750000000     0.053527   
H590     H      0.575880000000     0.043950000000     0.266890000000     0.0314191  
H591     H      0.614030000000     0.045580000000     0.222370000000     0.0308584  
H592     H      0.615660000000     0.012150000000     0.222320000000     0.0533509  
H593     H      0.786180000000     0.607990000000     0.184450000000     0.0534376  
H594     H      0.762410000000     0.606930000000     0.161400000000     0.0302653  
H595     H      0.801640000000     0.618210000000     0.119300000000     0.0316332  
H596     H      0.825790000000     0.620300000000     0.142120000000     0.05334    
H597     H      0.843510000000     0.601550000000     0.161460000000     0.0533595  
H598     H      0.866810000000     0.599180000000     0.185100000000     0.0299061  
H599     H      0.830010000000     0.622170000000     0.224540000000     0.0314466  
H600     H      0.806730000000     0.625690000000     0.201180000000     0.0532703  
H601     H      0.787450000000     0.617150000000     0.813370000000     0.0535617  
H602     H      0.763910000000     0.614330000000     0.836570000000     0.0314653  
H603     H      0.804180000000     0.600280000000     0.876830000000     0.0301784  
H604     H      0.828140000000     0.602230000000     0.853740000000     0.0536214  
H605     H      0.845690000000     0.621310000000     0.833490000000     0.0535488  
H606     H      0.868970000000     0.619060000000     0.809660000000     0.0316958  
H607     H      0.829650000000     0.596060000000     0.772710000000     0.0310085  
H608     H      0.806370000000     0.597450000000     0.796170000000     0.0537714  
H609     H      0.750630000000     0.632050000000     0.985240000000     0.0543049  
H610     H      0.748770000000     0.632060000000     0.951830000000     0.0302427  
H611     H      0.767150000000     0.576340000000     0.950410000000     0.0311163  
H612     H      0.768850000000     0.575800000000     0.983760000000     0.0541931  
H613     H      0.741620000000     0.577900000000     0.006900000000     0.0543976  
H614     H      0.736950000000     0.577000000000     0.039890000000     0.0307218  
H615     H      0.768780000000     0.625870000000     0.046250000000     0.0322141  
H616     H      0.773400000000     0.627380000000     0.013070000000     0.054242   
H617     H      0.697180000000     0.308270000000     0.115730000000     0.0530783  
H618     H      0.720280000000     0.331980000000     0.114060000000     0.0303792  
H619     H      0.678790000000     0.373120000000     0.109690000000     0.0318015  
H620     H      0.655210000000     0.349710000000     0.110190000000     0.0533867  
H621     H      0.638520000000     0.327330000000     0.125750000000     0.0532176  
H622     H      0.615210000000     0.303870000000     0.121750000000     0.0315225  
H623     H      0.653810000000     0.269420000000     0.094200000000     0.0308178  
H624     H      0.677070000000     0.292740000000     0.096940000000     0.0531811  
H625     H      0.825380000000     0.387310000000     0.147060000000     0.0532184  
H626     H      0.802130000000     0.386760000000     0.123220000000     0.0315809  
H627     H      0.760070000000     0.383300000000     0.163900000000     0.0305724  
H628     H      0.782800000000     0.382770000000     0.188020000000     0.0532759  
H629     H      0.802540000000     0.402560000000     0.203050000000     0.0531158  
H630     H      0.824920000000     0.405050000000     0.227290000000     0.0310015  
H631     H      0.864090000000     0.375910000000     0.194840000000     0.0318     
H632     H      0.841650000000     0.372250000000     0.170440000000     0.0532512  
H633     H      0.762510000000     0.485200000000     0.094020000000     0.0538877  
H634     H      0.763190000000     0.452130000000     0.092700000000     0.0313081  
H635     H      0.712570000000     0.449230000000     0.122090000000     0.0313139  
H636     H      0.711600000000     0.482680000000     0.124030000000     0.0535878  
H637     H      0.707950000000     0.510330000000     0.104750000000     0.0538254  
H638     H      0.709020000000     0.543750000000     0.103460000000     0.0314934  
H639     H      0.766600000000     0.542640000000     0.114110000000     0.0308451  
H640     H      0.765980000000     0.509530000000     0.115960000000     0.053696   
H641     H      0.794700000000     0.404470000000     0.816400000000     0.0533523  
H642     H      0.770380000000     0.407300000000     0.838670000000     0.0307427  
H643     H      0.797930000000     0.370050000000     0.874670000000     0.030917   
H644     H      0.822490000000     0.366380000000     0.852280000000     0.0532691  
H645     H      0.847870000000     0.382040000000     0.837720000000     0.0534257  
H646     H      0.871650000000     0.381360000000     0.814280000000     0.031295   
H647     H      0.830940000000     0.383250000000     0.772130000000     0.030806   
H648     H      0.806920000000     0.383300000000     0.794970000000     0.0534524  
H649     H      0.695490000000     0.310820000000     0.885340000000     0.053423   
H650     H      0.719260000000     0.333690000000     0.887920000000     0.030244   
H651     H      0.681160000000     0.375950000000     0.873860000000     0.0315329  
H652     H      0.657080000000     0.353300000000     0.870130000000     0.0531451  
H653     H      0.637870000000     0.334340000000     0.887320000000     0.0533181  
H654     H      0.614470000000     0.310820000000     0.889080000000     0.0306593  
H655     H      0.652560000000     0.270620000000     0.869890000000     0.0315851  
H656     H      0.676030000000     0.293870000000     0.866900000000     0.0531491  
H657     H      0.714830000000     0.379320000000     0.985570000000     0.0535255  
H658     H      0.714480000000     0.381320000000     0.952420000000     0.0306507  
H659     H      0.772240000000     0.390900000000     0.951770000000     0.0315878  
H660     H      0.773060000000     0.389480000000     0.985210000000     0.0537944  
H661     H      0.769050000000     0.370370000000     0.012780000000     0.0535233  
H662     H      0.768060000000     0.372390000000     0.046250000000     0.0310681  
H663     H      0.717710000000     0.402210000000     0.043220000000     0.031431   
H664     H      0.718420000000     0.400830000000     0.010140000000     0.05377    
H665     H      0.740660000000     0.488050000000     0.917290000000     0.0542443  
H666     H      0.745100000000     0.455050000000     0.918260000000     0.0306989  
H667     H      0.713570000000     0.448840000000     0.869150000000     0.0321939  
H668     H      0.709170000000     0.482020000000     0.867570000000     0.0541866  
H669     H      0.731900000000     0.509710000000     0.862930000000     0.0542232  
H670     H      0.733830000000     0.543090000000     0.862840000000     0.0302048  
H671     H      0.715510000000     0.544690000000     0.918610000000     0.0310501  
H672     H      0.713720000000     0.511380000000     0.919240000000     0.0541657  
H673     H      0.325910000000     0.642230000000     0.117120000000     0.0533453  
H674     H      0.302420000000     0.618630000000     0.115700000000     0.03152    
H675     H      0.260650000000     0.659720000000     0.116360000000     0.0308458  
H676     H      0.283520000000     0.683550000000     0.118760000000     0.0533504  
H677     H      0.304720000000     0.697930000000     0.099780000000     0.0533351  
H678     H      0.327480000000     0.721820000000     0.098270000000     0.0308847  
H679     H      0.364050000000     0.689890000000     0.131160000000     0.0311086  
H680     H      0.341100000000     0.665770000000     0.133740000000     0.0533174  
H681     H      0.361130000000     0.830180000000     0.150310000000     0.0532579  
H682     H      0.364060000000     0.806040000000     0.127500000000     0.0315428  
H683     H      0.384910000000     0.769430000000     0.168320000000     0.0306272  
H684     H      0.383360000000     0.793310000000     0.191140000000     0.0531821  
H685     H      0.366180000000     0.811390000000     0.210070000000     0.0530377  
H686     H      0.369730000000     0.835230000000     0.232850000000     0.0304096  
H687     H      0.379830000000     0.874810000000     0.190730000000     0.0313481  
H688     H      0.377690000000     0.851100000000     0.167490000000     0.0533584  
H689     H      0.374110000000     0.789290000000     0.815350000000     0.0531232  
H690     H      0.376310000000     0.766270000000     0.839090000000     0.0307874  
H691     H      0.381510000000     0.807970000000     0.880040000000     0.0312049  
H692     H      0.380680000000     0.831530000000     0.856520000000     0.0531544  
H693     H      0.365310000000     0.848430000000     0.834390000000     0.053174   
H694     H      0.369110000000     0.871570000000     0.810670000000     0.0316723  
H695     H      0.394650000000     0.832100000000     0.775590000000     0.0307674  
H696     H      0.392240000000     0.809040000000     0.799150000000     0.053229   
H697     H      0.305960000000     0.701390000000     0.877780000000     0.0529835  
H698     H      0.329040000000     0.724830000000     0.881960000000     0.0302268  
H699     H      0.369250000000     0.683840000000     0.893620000000     0.032066   
H700     H      0.346350000000     0.660020000000     0.890840000000     0.053564   
H701     H      0.326820000000     0.642320000000     0.873360000000     0.0531564  
H702     H      0.303680000000     0.618580000000     0.875990000000     0.0313546  
H703     H      0.264930000000     0.657970000000     0.895520000000     0.0304546  
H704     H      0.287820000000     0.681770000000     0.894280000000     0.0532083  
H705     H      0.380360000000     0.721340000000     0.991590000000     0.0535512  
H706     H      0.380450000000     0.720040000000     0.958460000000     0.0310042  
H707     H      0.376690000000     0.778520000000     0.955470000000     0.0318558  
H708     H      0.377340000000     0.780470000000     0.988880000000     0.0535116  
H709     H      0.401190000000     0.729720000000     0.014810000000     0.0536791  
H710     H      0.403320000000     0.729630000000     0.047880000000     0.0310386  
H711     H      0.365530000000     0.774330000000     0.051110000000     0.0318638  
H712     H      0.362460000000     0.774400000000     0.017770000000     0.0534378  
H713     H      0.621230000000     0.848400000000     0.170520000000     0.0534056  
H714     H      0.618230000000     0.871850000000     0.194100000000     0.0315354  
H715     H      0.592190000000     0.833240000000     0.229780000000     0.0310534  
H716     H      0.594000000000     0.809880000000     0.206450000000     0.0534014  
H717     H      0.612070000000     0.789730000000     0.190010000000     0.0531446  
H718     H      0.608610000000     0.766570000000     0.166470000000     0.0303632  
H719     H      0.601820000000     0.808170000000     0.125640000000     0.0317758  
H720     H      0.604100000000     0.831820000000     0.148970000000     0.0535133  
H721     H      0.635420000000     0.659870000000     0.113380000000     0.053439   
H722     H      0.612280000000     0.683920000000     0.114240000000     0.0313093  
H723     H      0.654110000000     0.724940000000     0.112400000000     0.0309617  
H724     H      0.677500000000     0.701490000000     0.112210000000     0.053521   
H725     H      0.689090000000     0.679930000000     0.090900000000     0.0533703  
H726     H      0.712860000000     0.657120000000     0.087920000000     0.0308168  
H727     H      0.684440000000     0.621580000000     0.124960000000     0.0308499  
H728     H      0.660440000000     0.644520000000     0.128800000000     0.0533207  
H729     H      0.501460000000     0.768560000000     0.097620000000     0.0537981  
H730     H      0.534390000000     0.768960000000     0.096140000000     0.0316564  
H731     H      0.537230000000     0.721110000000     0.130020000000     0.030948   
H732     H      0.503910000000     0.720650000000     0.132460000000     0.0533541  
H733     H      0.476180000000     0.715100000000     0.115510000000     0.0536885  
H734     H      0.442870000000     0.715910000000     0.114500000000     0.031828   
H735     H      0.443860000000     0.774560000000     0.115570000000     0.0306918  
H736     H      0.476870000000     0.774330000000     0.117430000000     0.0534253  
H737     H      0.625880000000     0.828450000000     0.856230000000     0.0535058  
H738     H      0.621390000000     0.804050000000     0.878580000000     0.0318196  
H739     H      0.595260000000     0.770970000000     0.837760000000     0.0306053  
H740     H      0.598820000000     0.795130000000     0.815350000000     0.0534654  
H741     H      0.619480000000     0.811550000000     0.796840000000     0.0531779  
H742     H      0.617640000000     0.835940000000     0.774350000000     0.0300755  
H743     H      0.608050000000     0.875210000000     0.816900000000     0.0312629  
H744     H      0.608980000000     0.851040000000     0.839820000000     0.053627   
H745     H      0.638760000000     0.663960000000     0.873550000000     0.0535077  
H746     H      0.616120000000     0.688350000000     0.876020000000     0.0318012  
H747     H      0.656390000000     0.724070000000     0.899250000000     0.0309133  
H748     H      0.679080000000     0.700040000000     0.897610000000     0.0537823  
H749     H      0.697480000000     0.682470000000     0.877610000000     0.0535985  
H750     H      0.720410000000     0.658670000000     0.880210000000     0.0314494  
H751     H      0.679190000000     0.619460000000     0.894350000000     0.0300532  
H752     H      0.655820000000     0.643160000000     0.892580000000     0.0535916  
H753     H      0.506130000000     0.713330000000     0.888710000000     0.053578   
H754     H      0.539470000000     0.714980000000     0.888410000000     0.0315355  
H755     H      0.537050000000     0.772690000000     0.898800000000     0.0308572  
H756     H      0.504010000000     0.771720000000     0.898570000000     0.0535189  
H757     H      0.480310000000     0.760840000000     0.917990000000     0.0535889  
H758     H      0.447310000000     0.761190000000     0.919250000000     0.030873   
H759     H      0.444540000000     0.722350000000     0.875310000000     0.030578   
H760     H      0.477890000000     0.722080000000     0.873200000000     0.0534048  
H761     H      0.599050000000     0.719880000000     0.989570000000     0.0535025  
H762     H      0.598350000000     0.719670000000     0.956430000000     0.0308458  
H763     H      0.601580000000     0.778250000000     0.955340000000     0.0314998  
H764     H      0.601520000000     0.779090000000     0.988780000000     0.0536238  
H765     H      0.617870000000     0.772220000000     0.016610000000     0.0535461  
H766     H      0.615850000000     0.771510000000     0.050020000000     0.0313508  
H767     H      0.578430000000     0.726470000000     0.047130000000     0.0312691  
H768     H      0.579480000000     0.727200000000     0.014050000000     0.0536372  
In1      In     0.596100000000     0.746800000000     0.897840000000     2.43981    
In2      In     0.593480000000     0.746300000000     0.106570000000     2.43738    
In3      In     0.387910000000     0.745850000000     0.899610000000     2.4241     
In4      In     0.385850000000     0.747440000000     0.107560000000     2.42771    
In5      In     0.740220000000     0.394720000000     0.894560000000     2.40968    
In6      In     0.740470000000     0.392750000000     0.102690000000     2.43325    
In7      In     0.741490000000     0.599360000000     0.895520000000     2.41085    
In8      In     0.741740000000     0.600600000000     0.100250000000     2.4148     
In9      In     0.594140000000     0.894060000000     0.251050000000     2.43847    
In10     In     0.591970000000     0.102900000000     0.246680000000     2.43407    
In11     In     0.384950000000     0.103760000000     0.250680000000     2.43034    
In12     In     0.386330000000     0.894790000000     0.252650000000     2.43645    
In13     In     0.393130000000     0.243440000000     0.899140000000     2.39517    
In14     In     0.386350000000     0.246030000000     0.102490000000     2.40932    
In15     In     0.595450000000     0.248380000000     0.891170000000     2.4018     
In16     In     0.593290000000     0.247130000000     0.097020000000     2.42612    
In17     In     0.090390000000     0.391780000000     0.250920000000     2.42751    
In18     In     0.883150000000     0.396910000000     0.254140000000     2.41758    
In19     In     0.887080000000     0.601910000000     0.247400000000     2.40615    
In20     In     0.091330000000     0.600330000000     0.249050000000     2.41417    
In21     In     0.246150000000     0.596120000000     0.897710000000     2.41929    
In22     In     0.240850000000     0.599010000000     0.105890000000     2.43749    
In23     In     0.238210000000     0.390860000000     0.105730000000     2.41641    
In24     In     0.246130000000     0.391390000000     0.901550000000     2.4036     
In25     In     0.890380000000     0.742730000000     0.604440000000     2.43524    
In26     In     0.097750000000     0.744750000000     0.606530000000     2.42711    
In27     In     0.890740000000     0.747120000000     0.395660000000     2.44132    
In28     In     0.098700000000     0.745470000000     0.398360000000     2.43554    
In29     In     0.100180000000     0.387080000000     0.754080000000     2.43845    
In30     In     0.892160000000     0.389280000000     0.752420000000     2.43681    
In31     In     0.890330000000     0.597860000000     0.751380000000     2.44592    
In32     In     0.098190000000     0.595700000000     0.751260000000     2.44017    
In33     In     0.240370000000     0.099360000000     0.398370000000     2.40823    
In34     In     0.244010000000     0.892570000000     0.404350000000     2.42628    
In35     In     0.243920000000     0.890010000000     0.608970000000     2.40027    
In36     In     0.244950000000     0.096650000000     0.604970000000     2.42076    
In37     In     0.094940000000     0.245080000000     0.396570000000     2.44175    
In38     In     0.886590000000     0.246140000000     0.396570000000     2.43245    
In39     In     0.890890000000     0.242870000000     0.604780000000     2.42658    
In40     In     0.098280000000     0.243770000000     0.605290000000     2.43022    
In41     In     0.742040000000     0.887600000000     0.604080000000     2.4358     
In42     In     0.746590000000     0.095580000000     0.598800000000     2.43158    
In43     In     0.741390000000     0.100570000000     0.390150000000     2.43986    
In44     In     0.742780000000     0.892150000000     0.395290000000     2.43541    
In45     In     0.393400000000     0.892690000000     0.753470000000     2.43876    
In46     In     0.394790000000     0.100120000000     0.747590000000     2.41151    
In47     In     0.601200000000     0.895860000000     0.755160000000     2.42503    
In48     In     0.599250000000     0.100640000000     0.744710000000     2.40236    
N1       N      0.604720000000     0.951340000000     0.760070000000    -0.193682   
N2       N      0.605380000000     0.048000000000     0.761960000000    -0.194284   
N3       N      0.449380000000     0.100890000000     0.735860000000    -0.194607   
N4       N      0.545660000000     0.103150000000     0.729690000000    -0.193421   
N5       N      0.391600000000     0.948340000000     0.756970000000    -0.193819   
N6       N      0.386620000000     0.045340000000     0.754210000000    -0.193202   
N7       N      0.448710000000     0.886840000000     0.751830000000    -0.193602   
N8       N      0.545870000000     0.889890000000     0.752970000000    -0.193482   
N9       N      0.744740000000     0.947630000000     0.389610000000    -0.193706   
N10      N      0.744150000000     0.044960000000     0.386140000000    -0.193893   
N11      N      0.635930000000     0.108100000000     0.703160000000    -0.196046   
N12      N      0.705870000000     0.103420000000     0.635980000000    -0.193175   
N13      N      0.743470000000     0.101470000000     0.543310000000    -0.193824   
N14      N      0.740480000000     0.104430000000     0.445900000000    -0.194063   
N15      N      0.703090000000     0.877670000000     0.642580000000    -0.193335   
N16      N      0.637240000000     0.887520000000     0.713410000000    -0.193342   
N17      N      0.740000000000     0.884480000000     0.548350000000    -0.193947   
N18      N      0.740360000000     0.887260000000     0.450870000000    -0.193882   
N19      N      0.746230000000     0.943020000000     0.609840000000    -0.194656   
N20      N      0.748590000000     0.040070000000     0.603900000000    -0.194076   
N21      N      0.785940000000     0.133250000000     0.611080000000    -0.194809   
N22      N      0.852600000000     0.203850000000     0.615260000000    -0.193579   
N23      N      0.946400000000     0.238110000000     0.606200000000    -0.193457   
N24      N      0.043260000000     0.240620000000     0.612940000000    -0.193403   
N25      N      0.779120000000     0.140070000000     0.379530000000    -0.193508   
N26      N      0.848960000000     0.207390000000     0.382500000000    -0.194596   
N27      N      0.880640000000     0.246350000000     0.452120000000    -0.193584   
N28      N      0.882630000000     0.245760000000     0.549610000000    -0.193386   
N29      N      0.039350000000     0.243360000000     0.394040000000    -0.194118   
N30      N      0.942150000000     0.243880000000     0.394580000000    -0.193941   
N31      N      0.100300000000     0.248050000000     0.452120000000    -0.194137   
N32      N      0.099650000000     0.248490000000     0.549530000000    -0.194904   
N33      N      0.137060000000     0.204450000000     0.613040000000    -0.193939   
N34      N      0.206650000000     0.136360000000     0.613180000000    -0.194058   
N35      N      0.284410000000     0.106310000000     0.643410000000    -0.194942   
N36      N      0.355420000000     0.110760000000     0.709540000000    -0.194274   
N37      N      0.285130000000     0.883220000000     0.646110000000    -0.194162   
N38      N      0.354270000000     0.884920000000     0.714470000000    -0.19442    
N39      N      0.231460000000     0.944620000000     0.609340000000    -0.19634    
N40      N      0.237320000000     0.041330000000     0.607310000000    -0.193843   
N41      N      0.251230000000     0.885440000000     0.459320000000    -0.193964   
N42      N      0.256190000000     0.878410000000     0.555840000000    -0.193488   
N43      N      0.132830000000     0.205700000000     0.386000000000    -0.193712   
N44      N      0.199740000000     0.135420000000     0.386010000000    -0.193607   
N45      N      0.231090000000     0.044370000000     0.393850000000    -0.195417   
N46      N      0.236510000000     0.947890000000     0.402520000000    -0.193932   
N47      N      0.251820000000     0.106920000000     0.452650000000    -0.195925   
N48      N      0.249710000000     0.101650000000     0.549560000000    -0.193353   
N49      N      0.945730000000     0.603010000000     0.753630000000    -0.19407    
N50      N      0.042860000000     0.601160000000     0.753230000000    -0.19376    
N51      N      0.882940000000     0.351100000000     0.712730000000    -0.19401    
N52      N      0.883870000000     0.282100000000     0.644020000000    -0.19442    
N53      N      0.886880000000     0.542210000000     0.748950000000    -0.194272   
N54      N      0.888590000000     0.444850000000     0.749530000000    -0.193707   
N55      N      0.110790000000     0.347770000000     0.716030000000    -0.193414   
N56      N      0.109370000000     0.281600000000     0.644700000000    -0.193405   
N57      N      0.947530000000     0.384020000000     0.755210000000    -0.193619   
N58      N      0.044710000000     0.382080000000     0.756190000000    -0.194017   
N59      N      0.103470000000     0.442710000000     0.750540000000    -0.194128   
N60      N      0.101720000000     0.540070000000     0.749070000000    -0.193714   
N61      N      0.206450000000     0.852860000000     0.393100000000    -0.194111   
N62      N      0.137220000000     0.784690000000     0.389200000000    -0.193856   
N63      N      0.851350000000     0.785530000000     0.386870000000    -0.193809   
N64      N      0.782860000000     0.854530000000     0.386030000000    -0.193924   
N65      N      0.946200000000     0.749600000000     0.391180000000    -0.194292   
N66      N      0.043280000000     0.748910000000     0.394200000000    -0.193856   
N67      N      0.135440000000     0.783960000000     0.618630000000    -0.193747   
N68      N      0.202800000000     0.853910000000     0.619600000000    -0.194232   
N69      N      0.105150000000     0.704610000000     0.644750000000    -0.194376   
N70      N      0.107560000000     0.634300000000     0.712050000000    -0.193884   
N71      N      0.104460000000     0.743360000000     0.453870000000    -0.193689   
N72      N      0.105690000000     0.742770000000     0.551270000000    -0.19359    
N73      N      0.850660000000     0.780990000000     0.612470000000    -0.193814   
N74      N      0.780000000000     0.847820000000     0.612430000000    -0.193256   
N75      N      0.879220000000     0.703990000000     0.642870000000    -0.193632   
N76      N      0.879400000000     0.636930000000     0.713230000000    -0.193544   
N77      N      0.889610000000     0.739390000000     0.548610000000    -0.194953   
N78      N      0.887850000000     0.742770000000     0.451260000000    -0.193956   
N79      N      0.945250000000     0.746110000000     0.612960000000    -0.193252   
N80      N      0.042180000000     0.748850000000     0.607870000000    -0.19363    
N81      N      0.139310000000     0.378970000000     0.792870000000    -0.193678   
N82      N      0.206550000000     0.382950000000     0.863040000000    -0.193939   
N83      N      0.229270000000     0.389310000000     0.050490000000    -0.194013   
N84      N      0.227470000000     0.386320000000     0.953890000000    -0.194728   
N85      N      0.241930000000     0.543450000000     0.111300000000    -0.19385    
N86      N      0.240910000000     0.446150000000     0.112440000000    -0.192956   
N87      N      0.205280000000     0.600510000000     0.859790000000    -0.194869   
N88      N      0.136320000000     0.603240000000     0.791210000000    -0.193867   
N89      N      0.261900000000     0.444740000000     0.896650000000    -0.194818   
N90      N      0.256890000000     0.541280000000     0.897780000000    -0.193614   
N91      N      0.242400000000     0.603780000000     0.952870000000    -0.193497   
N92      N      0.240450000000     0.603770000000     0.050230000000    -0.193928   
N93      N      0.131720000000     0.610310000000     0.211840000000    -0.194301   
N94      N      0.200940000000     0.609350000000     0.143400000000    -0.193644   
N95      N      0.098080000000     0.637720000000     0.290240000000    -0.194756   
N96      N      0.105060000000     0.705570000000     0.359840000000    -0.193804   
N97      N      0.880480000000     0.639660000000     0.288070000000    -0.194445   
N98      N      0.880630000000     0.709060000000     0.356270000000    -0.193623   
N99      N      0.940440000000     0.605750000000     0.231760000000    -0.194849   
N100     N      0.036620000000     0.602370000000     0.238370000000    -0.193336   
N101     N      0.878930000000     0.287460000000     0.359840000000    -0.19327    
N102     N      0.873210000000     0.358510000000     0.293600000000    -0.195278   
N103     N      0.880170000000     0.452350000000     0.259900000000    -0.193537   
N104     N      0.880230000000     0.549000000000     0.263720000000    -0.194691   
N105     N      0.101940000000     0.353040000000     0.289230000000    -0.192854   
N106     N      0.104080000000     0.282930000000     0.356660000000    -0.19382    
N107     N      0.129580000000     0.382310000000     0.212350000000    -0.193948   
N108     N      0.200270000000     0.380780000000     0.145360000000    -0.194263   
N109     N      0.938340000000     0.389790000000     0.250630000000    -0.193396   
N110     N      0.035310000000     0.383440000000     0.249190000000    -0.19359    
N111     N      0.092900000000     0.447590000000     0.254250000000    -0.194706   
N112     N      0.096040000000     0.544850000000     0.252660000000    -0.19337    
N113     N      0.603990000000     0.138450000000     0.785640000000    -0.193866   
N114     N      0.604390000000     0.206880000000     0.854940000000    -0.193561   
N115     N      0.603280000000     0.236060000000     0.945190000000    -0.195813   
N116     N      0.599360000000     0.240420000000     0.041880000000    -0.193887   
N117     N      0.349990000000     0.286880000000     0.113640000000    -0.194057   
N118     N      0.279580000000     0.353780000000     0.112190000000    -0.19485    
N119     N      0.441330000000     0.254950000000     0.106360000000    -0.194321   
N120     N      0.537890000000     0.253240000000     0.098670000000    -0.193873   
N121     N      0.287790000000     0.354550000000     0.896330000000    -0.194856   
N122     N      0.355870000000     0.284990000000     0.896070000000    -0.194436   
N123     N      0.389820000000     0.137180000000     0.789210000000    -0.194095   
N124     N      0.387520000000     0.203010000000     0.860790000000    -0.195777   
N125     N      0.386620000000     0.226840000000     0.952110000000    -0.192874   
N126     N      0.381000000000     0.231270000000     0.048660000000    -0.19636    
N127     N      0.445360000000     0.261380000000     0.891790000000    -0.193393   
N128     N      0.541770000000     0.262630000000     0.885220000000    -0.195598   
N129     N      0.349060000000     0.886770000000     0.293350000000    -0.193503   
N130     N      0.281630000000     0.886150000000     0.363600000000    -0.194083   
N131     N      0.346170000000     0.111630000000     0.289810000000    -0.193678   
N132     N      0.279400000000     0.110950000000     0.360350000000    -0.193556   
N133     N      0.374580000000     0.208570000000     0.142060000000    -0.193363   
N134     N      0.370830000000     0.140380000000     0.211140000000    -0.19303    
N135     N      0.383250000000     0.047950000000     0.248770000000    -0.194139   
N136     N      0.383380000000     0.950460000000     0.249860000000    -0.194255   
N137     N      0.601110000000     0.140710000000     0.206650000000    -0.193634   
N138     N      0.600930000000     0.209250000000     0.137420000000    -0.194159   
N139     N      0.631160000000     0.111730000000     0.285370000000    -0.193964   
N140     N      0.702260000000     0.110400000000     0.351750000000    -0.193353   
N141     N      0.536880000000     0.110180000000     0.249900000000    -0.19366    
N142     N      0.439940000000     0.113080000000     0.252600000000    -0.194763   
N143     N      0.633660000000     0.884890000000     0.289240000000    -0.193808   
N144     N      0.702590000000     0.882940000000     0.357790000000    -0.193743   
N145     N      0.538790000000     0.888320000000     0.253840000000    -0.194048   
N146     N      0.441620000000     0.888600000000     0.253840000000    -0.193569   
N147     N      0.596890000000     0.949710000000     0.247040000000    -0.193781   
N148     N      0.595020000000     0.047140000000     0.244730000000    -0.193962   
N149     N      0.780380000000     0.612190000000     0.138710000000    -0.194298   
N150     N      0.849960000000     0.610220000000     0.206520000000    -0.194697   
N151     N      0.782350000000     0.606850000000     0.858270000000    -0.194626   
N152     N      0.851000000000     0.607290000000     0.789570000000    -0.193626   
N153     N      0.757370000000     0.604080000000     0.948820000000    -0.19484    
N154     N      0.752430000000     0.601430000000     0.045380000000    -0.193586   
N155     N      0.701190000000     0.354190000000     0.111460000000    -0.19359    
N156     N      0.632820000000     0.285040000000     0.107620000000    -0.193612   
N157     N      0.779460000000     0.385360000000     0.141880000000    -0.193615   
N158     N      0.846090000000     0.390660000000     0.212800000000    -0.193127   
N159     N      0.737950000000     0.448320000000     0.107340000000    -0.193909   
N160     N      0.737920000000     0.545520000000     0.108320000000    -0.193552   
N161     N      0.782380000000     0.388820000000     0.858220000000    -0.194697   
N162     N      0.853000000000     0.382630000000     0.791580000000    -0.193859   
N163     N      0.701840000000     0.356460000000     0.881370000000    -0.194427   
N164     N      0.631970000000     0.289020000000     0.880010000000    -0.193382   
N165     N      0.743270000000     0.386580000000     0.949760000000    -0.193507   
N166     N      0.742830000000     0.387380000000     0.047110000000    -0.193881   
N167     N      0.729750000000     0.449630000000     0.893730000000    -0.193579   
N168     N      0.725260000000     0.546190000000     0.890840000000    -0.194798   
N169     N      0.279920000000     0.637510000000     0.115520000000    -0.193522   
N170     N      0.347400000000     0.707540000000     0.114560000000    -0.194456   
N171     N      0.374830000000     0.786100000000     0.146240000000    -0.193783   
N172     N      0.375330000000     0.856620000000     0.213420000000    -0.19395    
N173     N      0.379370000000     0.785480000000     0.861190000000    -0.193971   
N174     N      0.382230000000     0.853510000000     0.791510000000    -0.193388   
N175     N      0.350700000000     0.706020000000     0.888330000000    -0.193519   
N176     N      0.282770000000     0.636540000000     0.886160000000    -0.194169   
N177     N      0.378970000000     0.749200000000     0.954620000000    -0.19331    
N178     N      0.384410000000     0.751820000000     0.051860000000    -0.193498   
N179     N      0.604870000000     0.854260000000     0.213520000000    -0.19349    
N180     N      0.604650000000     0.785720000000     0.144460000000    -0.19396    
N181     N      0.631530000000     0.706100000000     0.112990000000    -0.193839   
N182     N      0.700390000000     0.637760000000     0.106300000000    -0.194738   
N183     N      0.538170000000     0.745070000000     0.112980000000    -0.193753   
N184     N      0.441040000000     0.745270000000     0.114590000000    -0.193367   
N185     N      0.607900000000     0.785860000000     0.859800000000    -0.193943   
N186     N      0.612340000000     0.857220000000     0.794000000000    -0.195197   
N187     N      0.634610000000     0.707870000000     0.887920000000    -0.19365    
N188     N      0.701460000000     0.637450000000     0.887730000000    -0.194658   
N189     N      0.540610000000     0.743870000000     0.893870000000    -0.194092   
N190     N      0.443580000000     0.741940000000     0.897240000000    -0.195189   
N191     N      0.599680000000     0.748950000000     0.953540000000    -0.194317   
N192     N      0.597140000000     0.748870000000     0.050930000000    -0.193963   
O1       O      0.596010000000     0.733760000000     0.926060000000    -0.516912   
O2       O      0.600070000000     0.762630000000     0.924820000000    -0.491089   
O3       O      0.604910000000     0.718890000000     0.886460000000    -0.493275   
O4       O      0.569540000000     0.730950000000     0.892010000000    -0.491459   
O5       O      0.608600000000     0.774320000000     0.889400000000    -0.494809   
O6       O      0.567700000000     0.759230000000     0.899010000000    -0.516712   
O7       O      0.625380000000     0.736600000000     0.897410000000    -0.515563   
O8       O      0.596640000000     0.757620000000     0.868620000000    -0.51615    
O9       O      0.599590000000     0.755720000000     0.135700000000    -0.513463   
O10      O      0.599630000000     0.775990000000     0.114640000000    -0.495713   
O11      O      0.601510000000     0.716390000000     0.112250000000    -0.494049   
O12      O      0.567210000000     0.733230000000     0.118250000000    -0.490914   
O13      O      0.604230000000     0.759560000000     0.080060000000    -0.490509   
O14      O      0.565080000000     0.757790000000     0.102580000000    -0.516284   
O15      O      0.622700000000     0.736190000000     0.108950000000    -0.51505    
O16      O      0.587120000000     0.736000000000     0.078000000000    -0.515166   
O17      O      0.384020000000     0.755530000000     0.870230000000    -0.510237   
O18      O      0.382230000000     0.775660000000     0.891300000000    -0.493299   
O19      O      0.380110000000     0.716000000000     0.894540000000    -0.49332    
O20      O      0.414480000000     0.733190000000     0.887970000000    -0.493031   
O21      O      0.379810000000     0.762010000000     0.925480000000    -0.485945   
O22      O      0.416590000000     0.753680000000     0.908530000000    -0.519258   
O23      O      0.359130000000     0.736270000000     0.892520000000    -0.508091   
O24      O      0.384800000000     0.733350000000     0.927900000000    -0.510041   
O25      O      0.393950000000     0.738440000000     0.078890000000    -0.512853   
O26      O      0.376960000000     0.762050000000     0.081060000000    -0.487085   
O27      O      0.376430000000     0.719580000000     0.119110000000    -0.492912   
O28      O      0.412500000000     0.731530000000     0.112470000000    -0.488017   
O29      O      0.375490000000     0.775830000000     0.116170000000    -0.492267   
O30      O      0.413800000000     0.760650000000     0.110190000000    -0.512807   
O31      O      0.357280000000     0.735750000000     0.104270000000    -0.518322   
O32      O      0.383150000000     0.756960000000     0.137120000000    -0.514136   
O33      O      0.727580000000     0.388700000000     0.922360000000    -0.509503   
O34      O      0.756540000000     0.391920000000     0.921350000000    -0.486932   
O35      O      0.711700000000     0.386410000000     0.884610000000    -0.492685   
O36      O      0.725700000000     0.420060000000     0.882930000000    -0.484334   
O37      O      0.768230000000     0.382830000000     0.886080000000    -0.492566   
O38      O      0.743760000000     0.423800000000     0.905500000000    -0.505646   
O39      O      0.731150000000     0.365250000000     0.889350000000    -0.509855   
O40      O      0.754470000000     0.400370000000     0.867390000000    -0.514816   
O41      O      0.749580000000     0.388990000000     0.132280000000    -0.512845   
O42      O      0.770080000000     0.387330000000     0.111550000000    -0.493899   
O43      O      0.710890000000     0.384280000000     0.108490000000    -0.494486   
O44      O      0.726330000000     0.419170000000     0.112650000000    -0.489236   
O45      O      0.729360000000     0.396890000000     0.074050000000    -0.516759   
O46      O      0.751570000000     0.421330000000     0.098220000000    -0.51635    
O47      O      0.731160000000     0.363310000000     0.107180000000    -0.512221   
O48      O      0.754450000000     0.382230000000     0.076330000000    -0.490073   
O49      O      0.752000000000     0.605610000000     0.866850000000    -0.501565   
O50      O      0.771860000000     0.600760000000     0.887630000000    -0.501934   
O51      O      0.711270000000     0.607880000000     0.893930000000    -0.501907   
O52      O      0.737150000000     0.573030000000     0.878860000000    -0.50185    
O53      O      0.756380000000     0.588980000000     0.920990000000    -0.498132   
O54      O      0.726380000000     0.574020000000     0.905900000000    -0.498635   
O55      O      0.731590000000     0.628150000000     0.888940000000    -0.501791   
O56      O      0.745540000000     0.615980000000     0.921920000000    -0.50165    
O57      O      0.756430000000     0.612180000000     0.074990000000    -0.484918   
O58      O      0.738180000000     0.589780000000     0.071140000000    -0.506791   
O59      O      0.713860000000     0.609550000000     0.112070000000    -0.493734   
O60      O      0.725010000000     0.574050000000     0.102790000000    -0.486892   
O61      O      0.770560000000     0.609450000000     0.108680000000    -0.492984   
O62      O      0.753910000000     0.572710000000     0.106460000000    -0.510667   
O63      O      0.728150000000     0.628090000000     0.094790000000    -0.515728   
O64      O      0.750750000000     0.605760000000     0.129750000000    -0.510394   
O65      O      0.593000000000     0.922700000000     0.263010000000    -0.516863   
O66      O      0.598050000000     0.920550000000     0.234310000000    -0.490945   
O67      O      0.603810000000     0.882590000000     0.278720000000    -0.493047   
O68      O      0.567490000000     0.889900000000     0.267380000000    -0.490421   
O69      O      0.606050000000     0.884410000000     0.223580000000    -0.492273   
O70      O      0.565930000000     0.892550000000     0.238320000000    -0.516911   
O71      O      0.623480000000     0.894950000000     0.261010000000    -0.516881   
O72      O      0.594840000000     0.864440000000     0.241760000000    -0.515007   
O73      O      0.596510000000     0.132060000000     0.236760000000    -0.512998   
O74      O      0.597640000000     0.110760000000     0.216760000000    -0.494167   
O75      O      0.600950000000     0.108360000000     0.276340000000    -0.494532   
O76      O      0.566360000000     0.114430000000     0.260980000000    -0.489354   
O77      O      0.602550000000     0.076050000000     0.233700000000    -0.490714   
O78      O      0.563160000000     0.099750000000     0.235900000000    -0.515329   
O79      O      0.621450000000     0.107170000000     0.255590000000    -0.513471   
O80      O      0.585360000000     0.074500000000     0.257220000000    -0.516456   
O81      O      0.389180000000     0.075540000000     0.263020000000    -0.515878   
O82      O      0.379470000000     0.076610000000     0.235520000000    -0.489366   
O83      O      0.375250000000     0.116070000000     0.277910000000    -0.492348   
O84      O      0.411700000000     0.109220000000     0.266620000000    -0.491094   
O85      O      0.377100000000     0.110940000000     0.221200000000    -0.489978   
O86      O      0.412610000000     0.108760000000     0.237500000000    -0.517777   
O87      O      0.356180000000     0.100860000000     0.261780000000    -0.515585   
O88      O      0.376340000000     0.132220000000     0.241260000000    -0.509585   
O89      O      0.379900000000     0.865730000000     0.243410000000    -0.513788   
O90      O      0.380680000000     0.886490000000     0.222860000000    -0.495884   
O91      O      0.378860000000     0.889050000000     0.282680000000    -0.494269   
O92      O      0.412640000000     0.883390000000     0.265860000000    -0.488754   
O93      O      0.374740000000     0.921400000000     0.240130000000    -0.491014   
O94      O      0.414610000000     0.898330000000     0.240810000000    -0.515493   
O95      O      0.357280000000     0.891790000000     0.263190000000    -0.513386   
O96      O      0.393670000000     0.923310000000     0.262250000000    -0.516763   
O97      O      0.404120000000     0.231490000000     0.926060000000    -0.484688   
O98      O      0.375470000000     0.235900000000     0.923880000000    -0.494145   
O99      O      0.385630000000     0.274030000000     0.896610000000    -0.499624   
O100     O      0.419760000000     0.256020000000     0.909640000000    -0.488138   
O101     O      0.394730000000     0.213270000000     0.890000000000    -0.50677    
O102     O      0.417430000000     0.251160000000     0.880940000000    -0.500052   
O103     O      0.364090000000     0.254520000000     0.897890000000    -0.495254   
O104     O      0.384970000000     0.232890000000     0.870860000000    -0.506092   
O105     O      0.385640000000     0.236490000000     0.132070000000    -0.49994    
O106     O      0.374200000000     0.218640000000     0.111890000000    -0.494591   
O107     O      0.379220000000     0.276480000000     0.106850000000    -0.491638   
O108     O      0.412150000000     0.263590000000     0.097200000000    -0.492338   
O109     O      0.392450000000     0.227050000000     0.077980000000    -0.502168   
O110     O      0.414790000000     0.239270000000     0.112970000000    -0.50426    
O111     O      0.358360000000     0.256540000000     0.110850000000    -0.507438   
O112     O      0.373550000000     0.248700000000     0.074010000000    -0.513102   
O113     O      0.602950000000     0.237420000000     0.863010000000    -0.495754   
O114     O      0.597950000000     0.217810000000     0.884100000000    -0.495954   
O115     O      0.603080000000     0.278710000000     0.888050000000    -0.495493   
O116     O      0.570260000000     0.265690000000     0.898710000000    -0.497048   
O117     O      0.588090000000     0.232710000000     0.917540000000    -0.499197   
O118     O      0.568000000000     0.247510000000     0.876130000000    -0.507774   
O119     O      0.623290000000     0.258640000000     0.881730000000    -0.493102   
O120     O      0.612140000000     0.248940000000     0.917670000000    -0.50954    
O121     O      0.595540000000     0.258050000000     0.067910000000    -0.512573   
O122     O      0.597130000000     0.229110000000     0.071510000000    -0.490409   
O123     O      0.602840000000     0.274720000000     0.108770000000    -0.492072   
O124     O      0.567410000000     0.264770000000     0.100790000000    -0.488608   
O125     O      0.604890000000     0.219880000000     0.107710000000    -0.493095   
O126     O      0.564290000000     0.236490000000     0.094280000000    -0.5146     
O127     O      0.622830000000     0.256850000000     0.097260000000    -0.512287   
O128     O      0.590750000000     0.237150000000     0.126480000000    -0.514568   
O129     O      0.119940000000     0.388370000000     0.241870000000    -0.512149   
O130     O      0.099320000000     0.385050000000     0.221480000000    -0.493209   
O131     O      0.097040000000     0.383120000000     0.280260000000    -0.490707   
O132     O      0.100080000000     0.418480000000     0.264960000000    -0.492126   
O133     O      0.063840000000     0.385030000000     0.235280000000    -0.486857   
O134     O      0.083470000000     0.420450000000     0.241140000000    -0.519829   
O135     O      0.096210000000     0.362440000000     0.259500000000    -0.509591   
O136     O      0.062560000000     0.388510000000     0.264250000000    -0.51267    
O137     O      0.912050000000     0.399770000000     0.264960000000    -0.509324   
O138     O      0.908890000000     0.386390000000     0.239190000000    -0.485974   
O139     O      0.878450000000     0.388330000000     0.284090000000    -0.496644   
O140     O      0.871150000000     0.422800000000     0.267320000000    -0.488223   
O141     O      0.875170000000     0.387460000000     0.225150000000    -0.489394   
O142     O      0.891400000000     0.425950000000     0.246510000000    -0.509252   
O143     O      0.875660000000     0.367980000000     0.263470000000    -0.515389   
O144     O      0.854690000000     0.399740000000     0.241910000000    -0.5099     
O145     O      0.859130000000     0.610530000000     0.236800000000    -0.500701   
O146     O      0.878680000000     0.601810000000     0.217030000000    -0.502441   
O147     O      0.885980000000     0.610090000000     0.277840000000    -0.500461   
O148     O      0.896460000000     0.576120000000     0.262370000000    -0.497685   
O149     O      0.912630000000     0.590810000000     0.233200000000    -0.497257   
O150     O      0.869270000000     0.576400000000     0.252110000000    -0.501518   
O151     O      0.881430000000     0.630730000000     0.257730000000    -0.499057   
O152     O      0.913480000000     0.618330000000     0.242610000000    -0.500597   
O153     O      0.061880000000     0.591430000000     0.253900000000    -0.507648   
O154     O      0.066560000000     0.611430000000     0.233160000000    -0.485027   
O155     O      0.102620000000     0.609030000000     0.277290000000    -0.492935   
O156     O      0.093790000000     0.573760000000     0.265720000000    -0.486776   
O157     O      0.101430000000     0.610720000000     0.221110000000    -0.492127   
O158     O      0.094230000000     0.572010000000     0.236510000000    -0.50971    
O159     O      0.087140000000     0.628380000000     0.262060000000    -0.516205   
O160     O      0.121270000000     0.601850000000     0.240520000000    -0.511545   
O161     O      0.258550000000     0.601020000000     0.925800000000    -0.510681   
O162     O      0.229460000000     0.599410000000     0.924150000000    -0.487449   
O163     O      0.274070000000     0.606050000000     0.887430000000    -0.493411   
O164     O      0.262060000000     0.570920000000     0.887570000000    -0.485487   
O165     O      0.217880000000     0.606570000000     0.888360000000    -0.493552   
O166     O      0.241650000000     0.567020000000     0.908020000000    -0.50851    
O167     O      0.254060000000     0.626100000000     0.894260000000    -0.512423   
O168     O      0.233500000000     0.590530000000     0.869780000000    -0.517182   
O169     O      0.230980000000     0.604420000000     0.134960000000    -0.512801   
O170     O      0.211060000000     0.604940000000     0.113590000000    -0.494375   
O171     O      0.270310000000     0.607340000000     0.112760000000    -0.493496   
O172     O      0.253830000000     0.572430000000     0.117040000000    -0.491146   
O173     O      0.227940000000     0.609330000000     0.078980000000    -0.490511   
O174     O      0.229410000000     0.570620000000     0.101210000000    -0.517636   
O175     O      0.250240000000     0.628370000000     0.109820000000    -0.513966   
O176     O      0.252980000000     0.594450000000     0.077700000000    -0.516535   
O177     O      0.243490000000     0.400460000000     0.076470000000    -0.509541   
O178     O      0.223410000000     0.379720000000     0.080220000000    -0.486798   
O179     O      0.267150000000     0.382840000000     0.115520000000    -0.492537   
O180     O      0.254370000000     0.417500000000     0.109600000000    -0.485649   
O181     O      0.210260000000     0.380280000000     0.115240000000    -0.492975   
O182     O      0.225210000000     0.418900000000     0.108990000000    -0.508626   
O183     O      0.250510000000     0.362330000000     0.103360000000    -0.517439   
O184     O      0.229140000000     0.389210000000     0.135590000000    -0.511869   
O185     O      0.236630000000     0.385050000000     0.872490000000    -0.496582   
O186     O      0.216060000000     0.389280000000     0.892700000000    -0.50046    
O187     O      0.276400000000     0.383200000000     0.903890000000    -0.501963   
O188     O      0.259970000000     0.417280000000     0.912260000000    -0.497918   
O189     O      0.240280000000     0.374390000000     0.927420000000    -0.501686   
O190     O      0.251110000000     0.417480000000     0.884540000000    -0.500147   
O191     O      0.257620000000     0.363470000000     0.893630000000    -0.501149   
O192     O      0.230130000000     0.401670000000     0.926330000000    -0.497314   
O193     O      0.860720000000     0.751730000000     0.605970000000    -0.514198   
O194     O      0.881050000000     0.771910000000     0.611570000000    -0.493539   
O195     O      0.884750000000     0.713130000000     0.612950000000    -0.49379    
O196     O      0.880420000000     0.729510000000     0.577440000000    -0.49267    
O197     O      0.916210000000     0.758950000000     0.612200000000    -0.486944   
O198     O      0.899180000000     0.751720000000     0.576050000000    -0.520181   
O199     O      0.883830000000     0.733900000000     0.633570000000    -0.513204   
O200     O      0.918570000000     0.730230000000     0.607360000000    -0.512535   
O201     O      0.069230000000     0.735880000000     0.597970000000    -0.512909   
O202     O      0.071220000000     0.758870000000     0.615840000000    -0.487402   
O203     O      0.109490000000     0.716940000000     0.615730000000    -0.49291    
O204     O      0.102850000000     0.728910000000     0.579780000000    -0.488162   
O205     O      0.105600000000     0.773620000000     0.616030000000    -0.49202    
O206     O      0.101280000000     0.758060000000     0.578630000000    -0.512943   
O207     O      0.094470000000     0.732750000000     0.635070000000    -0.517284   
O208     O      0.126980000000     0.754390000000     0.611070000000    -0.513196   
O209     O      0.918900000000     0.734290000000     0.394980000000    -0.518083   
O210     O      0.917510000000     0.763230000000     0.391430000000    -0.491223   
O211     O      0.879520000000     0.719350000000     0.386310000000    -0.493083   
O212     O      0.885880000000     0.730480000000     0.421980000000    -0.490548   
O213     O      0.881100000000     0.774810000000     0.384220000000    -0.494118   
O214     O      0.892450000000     0.758830000000     0.424400000000    -0.516608   
O215     O      0.889790000000     0.737730000000     0.366020000000    -0.516011   
O216     O      0.861440000000     0.757220000000     0.396740000000    -0.517439   
O217     O      0.128020000000     0.754680000000     0.393310000000    -0.513283   
O218     O      0.107210000000     0.775130000000     0.392720000000    -0.495995   
O219     O      0.103800000000     0.715560000000     0.390030000000    -0.494741   
O220     O      0.109840000000     0.731850000000     0.424640000000    -0.489873   
O221     O      0.072540000000     0.759240000000     0.387390000000    -0.489291   
O222     O      0.094430000000     0.756540000000     0.426970000000    -0.515292   
O223     O      0.101670000000     0.735680000000     0.368940000000    -0.514299   
O224     O      0.070010000000     0.735580000000     0.404340000000    -0.515409   
O225     O      0.072040000000     0.386710000000     0.741120000000    -0.516982   
O226     O      0.073360000000     0.382240000000     0.769960000000    -0.49049    
O227     O      0.112320000000     0.377660000000     0.726700000000    -0.493383   
O228     O      0.104310000000     0.413670000000     0.737570000000    -0.490441   
O229     O      0.109510000000     0.376560000000     0.782240000000    -0.493431   
O230     O      0.099320000000     0.415620000000     0.766280000000    -0.517432   
O231     O      0.100680000000     0.357510000000     0.744420000000    -0.51494    
O232     O      0.129580000000     0.387280000000     0.763930000000    -0.516357   
O233     O      0.862660000000     0.386680000000     0.761710000000    -0.51589    
O234     O      0.883290000000     0.383570000000     0.782120000000    -0.494698   
O235     O      0.886320000000     0.381090000000     0.722640000000    -0.495462   
O236     O      0.881740000000     0.415710000000     0.738730000000    -0.489013   
O237     O      0.918270000000     0.377850000000     0.766040000000    -0.489757   
O238     O      0.898020000000     0.417830000000     0.762900000000    -0.515182   
O239     O      0.887650000000     0.359970000000     0.742780000000    -0.514814   
O240     O      0.920790000000     0.394160000000     0.741910000000    -0.515848   
O241     O      0.918470000000     0.598360000000     0.738450000000    -0.517971   
O242     O      0.917070000000     0.602700000000     0.767320000000    -0.491823   
O243     O      0.878340000000     0.607000000000     0.723830000000    -0.49355    
O244     O      0.886440000000     0.570960000000     0.735320000000    -0.491902   
O245     O      0.880970000000     0.608880000000     0.779280000000    -0.49366    
O246     O      0.890740000000     0.569610000000     0.764180000000    -0.51901    
O247     O      0.889660000000     0.627320000000     0.741590000000    -0.516477   
O248     O      0.860890000000     0.598140000000     0.760950000000    -0.517543   
O249     O      0.127470000000     0.598670000000     0.761160000000    -0.515696   
O250     O      0.106310000000     0.601570000000     0.781070000000    -0.495127   
O251     O      0.104330000000     0.604140000000     0.721560000000    -0.495531   
O252     O      0.108970000000     0.569080000000     0.738100000000    -0.490054   
O253     O      0.071960000000     0.607040000000     0.764560000000    -0.489946   
O254     O      0.091960000000     0.567270000000     0.761780000000    -0.516588   
O255     O      0.102810000000     0.625030000000     0.741940000000    -0.515993   
O256     O      0.069730000000     0.591070000000     0.740170000000    -0.515992   
O257     O      0.229970000000     0.127250000000     0.389600000000    -0.501183   
O258     O      0.210040000000     0.106300000000     0.393630000000    -0.492758   
O259     O      0.269990000000     0.106250000000     0.390390000000    -0.493644   
O260     O      0.257430000000     0.093620000000     0.424350000000    -0.500035   
O261     O      0.223810000000     0.073230000000     0.405030000000    -0.496764   
O262     O      0.237270000000     0.114460000000     0.425610000000    -0.511216   
O263     O      0.249730000000     0.105140000000     0.369350000000    -0.499709   
O264     O      0.245100000000     0.071380000000     0.385370000000    -0.510293   
O265     O      0.254210000000     0.921930000000     0.406120000000    -0.513227   
O266     O      0.225670000000     0.918030000000     0.401790000000    -0.489516   
O267     O      0.271360000000     0.881600000000     0.393340000000    -0.492328   
O268     O      0.262220000000     0.887640000000     0.429560000000    -0.4911     
O269     O      0.216730000000     0.882890000000     0.392160000000    -0.492911   
O270     O      0.233560000000     0.890850000000     0.433640000000    -0.513917   
O271     O      0.253710000000     0.895690000000     0.374890000000    -0.513783   
O272     O      0.234420000000     0.862900000000     0.403870000000    -0.513115   
O273     O      0.233190000000     0.862450000000     0.618730000000    -0.500198   
O274     O      0.213500000000     0.882540000000     0.610930000000    -0.500347   
O275     O      0.274390000000     0.887140000000     0.616450000000    -0.494413   
O276     O      0.262360000000     0.892490000000     0.583620000000    -0.4836     
O277     O      0.236650000000     0.916920000000     0.623980000000    -0.50052    
O278     O      0.240570000000     0.873200000000     0.582850000000    -0.502072   
O279     O      0.254750000000     0.885540000000     0.637880000000    -0.500582   
O280     O      0.235880000000     0.916820000000     0.594950000000    -0.508817   
O281     O      0.253070000000     0.067280000000     0.598430000000    -0.511646   
O282     O      0.228910000000     0.071180000000     0.614240000000    -0.488722   
O283     O      0.272730000000     0.108350000000     0.613940000000    -0.49523    
O284     O      0.262010000000     0.100110000000     0.578830000000    -0.486623   
O285     O      0.216980000000     0.106420000000     0.615430000000    -0.491713   
O286     O      0.233030000000     0.097940000000     0.576220000000    -0.509783   
O287     O      0.256320000000     0.095240000000     0.634080000000    -0.515851   
O288     O      0.235270000000     0.126270000000     0.604390000000    -0.512029   
O289     O      0.066880000000     0.258150000000     0.398410000000    -0.516461   
O290     O      0.067910000000     0.229640000000     0.392180000000    -0.49146    
O291     O      0.106920000000     0.272340000000     0.386510000000    -0.494313   
O292     O      0.100680000000     0.261210000000     0.423120000000    -0.490772   
O293     O      0.103130000000     0.216810000000     0.385570000000    -0.49277    
O294     O      0.094980000000     0.232650000000     0.425020000000    -0.518273   
O295     O      0.093910000000     0.254840000000     0.367060000000    -0.516982   
O296     O      0.124130000000     0.234710000000     0.395130000000    -0.516963   
O297     O      0.857860000000     0.237140000000     0.388520000000    -0.516311   
O298     O      0.878500000000     0.216610000000     0.389370000000    -0.495358   
O299     O      0.876340000000     0.274890000000     0.388960000000    -0.491121   
O300     O      0.876780000000     0.259620000000     0.423420000000    -0.488865   
O301     O      0.913380000000     0.233580000000     0.386030000000    -0.489899   
O302     O      0.888760000000     0.233030000000     0.424620000000    -0.514506   
O303     O      0.888880000000     0.258610000000     0.368170000000    -0.513664   
O304     O      0.914820000000     0.256300000000     0.404370000000    -0.514857   
O305     O      0.919540000000     0.251510000000     0.596380000000    -0.512543   
O306     O      0.917230000000     0.228170000000     0.613760000000    -0.487299   
O307     O      0.879510000000     0.270630000000     0.614640000000    -0.493631   
O308     O      0.886400000000     0.259220000000     0.578210000000    -0.487458   
O309     O      0.882570000000     0.214070000000     0.614050000000    -0.491702   
O310     O      0.886880000000     0.230030000000     0.576730000000    -0.512137   
O311     O      0.894070000000     0.254030000000     0.633660000000    -0.518176   
O312     O      0.861490000000     0.233430000000     0.608310000000    -0.513111   
O313     O      0.127770000000     0.234230000000     0.607800000000    -0.512822   
O314     O      0.106920000000     0.214120000000     0.611160000000    -0.493781   
O315     O      0.104290000000     0.273100000000     0.614500000000    -0.493703   
O316     O      0.108710000000     0.257570000000     0.578690000000    -0.491679   
O317     O      0.072260000000     0.227700000000     0.612700000000    -0.486434   
O318     O      0.089860000000     0.235510000000     0.576590000000    -0.520421   
O319     O      0.104300000000     0.251960000000     0.634760000000    -0.511609   
O320     O      0.070080000000     0.256420000000     0.607830000000    -0.51166    
O321     O      0.730070000000     0.916160000000     0.606230000000    -0.518995   
O322     O      0.758930000000     0.913870000000     0.608890000000    -0.490964   
O323     O      0.712540000000     0.881120000000     0.612430000000    -0.491559   
O324     O      0.726730000000     0.881570000000     0.577130000000    -0.489357   
O325     O      0.768720000000     0.877200000000     0.616750000000    -0.492062   
O326     O      0.754470000000     0.890420000000     0.575800000000    -0.516768   
O327     O      0.733030000000     0.881320000000     0.633240000000    -0.512957   
O328     O      0.752310000000     0.858400000000     0.601460000000    -0.514662   
O329     O      0.755940000000     0.124100000000     0.607460000000    -0.514662   
O330     O      0.776540000000     0.103970000000     0.603210000000    -0.497528   
O331     O      0.717430000000     0.104240000000     0.606370000000    -0.491098   
O332     O      0.732890000000     0.107150000000     0.572790000000    -0.49015    
O333     O      0.759740000000     0.069220000000     0.609960000000    -0.490344   
O334     O      0.757080000000     0.091160000000     0.569910000000    -0.513831   
O335     O      0.735270000000     0.095320000000     0.627750000000    -0.511678   
O336     O      0.736010000000     0.066980000000     0.593120000000    -0.515373   
O337     O      0.728860000000     0.072200000000     0.390770000000    -0.516881   
O338     O      0.757440000000     0.073850000000     0.385270000000    -0.490366   
O339     O      0.713670000000     0.112440000000     0.381380000000    -0.492734   
O340     O      0.726080000000     0.104540000000     0.417500000000    -0.490652   
O341     O      0.768720000000     0.110080000000     0.377970000000    -0.49273    
O342     O      0.754950000000     0.100650000000     0.418060000000    -0.517414   
O343     O      0.730720000000     0.100270000000     0.360970000000    -0.516234   
O344     O      0.750890000000     0.130110000000     0.389590000000    -0.516337   
O345     O      0.752790000000     0.863110000000     0.390370000000    -0.513991   
O346     O      0.772740000000     0.884400000000     0.389980000000    -0.495396   
O347     O      0.712850000000     0.886720000000     0.387640000000    -0.495148   
O348     O      0.730220000000     0.879910000000     0.421590000000    -0.490468   
O349     O      0.755710000000     0.918400000000     0.383350000000    -0.489621   
O350     O      0.752720000000     0.898320000000     0.423990000000    -0.515043   
O351     O      0.732710000000     0.887260000000     0.366230000000    -0.513503   
O352     O      0.732140000000     0.920760000000     0.400390000000    -0.514629   
O353     O      0.398980000000     0.921190000000     0.742600000000    -0.51731    
O354     O      0.386560000000     0.919310000000     0.768970000000    -0.489265   
O355     O      0.383820000000     0.881480000000     0.725560000000    -0.494225   
O356     O      0.420270000000     0.888240000000     0.737790000000    -0.489978   
O357     O      0.381930000000     0.883590000000     0.781270000000    -0.492439   
O358     O      0.421250000000     0.890630000000     0.766940000000    -0.515016   
O359     O      0.364360000000     0.894680000000     0.742800000000    -0.520166   
O360     O      0.391980000000     0.863110000000     0.762960000000    -0.514812   
O361     O      0.398240000000     0.128630000000     0.759890000000    -0.510856   
O362     O      0.385700000000     0.108310000000     0.776610000000    -0.49292    
O363     O      0.385310000000     0.104990000000     0.718150000000    -0.495844   
O364     O      0.419880000000     0.112110000000     0.732760000000    -0.488962   
O365     O      0.392620000000     0.074390000000     0.765600000000    -0.482933   
O366     O      0.423830000000     0.089160000000     0.750240000000    -0.510759   
O367     O      0.365610000000     0.107970000000     0.739460000000    -0.508696   
O368     O      0.387040000000     0.071890000000     0.737030000000    -0.507152   
O369     O      0.608840000000     0.866910000000     0.764070000000    -0.516288   
O370     O      0.606590000000     0.887100000000     0.784940000000    -0.496972   
O371     O      0.608300000000     0.885640000000     0.726270000000    -0.489965   
O372     O      0.574920000000     0.886230000000     0.740690000000    -0.487181   
O373     O      0.613630000000     0.921840000000     0.767830000000    -0.489695   
O374     O      0.572720000000     0.898580000000     0.767080000000    -0.510927   
O375     O      0.629380000000     0.897970000000     0.742250000000    -0.511449   
O376     O      0.593240000000     0.924850000000     0.747140000000    -0.512028   
O377     O      0.616580000000     0.074950000000     0.749570000000    -0.502225   
O378     O      0.589480000000     0.075320000000     0.760220000000    -0.495091   
O379     O      0.607350000000     0.100160000000     0.714260000000    -0.506916   
O380     O      0.573460000000     0.088250000000     0.732020000000    -0.491261   
O381     O      0.605680000000     0.108710000000     0.774550000000    -0.498904   
O382     O      0.572670000000     0.116390000000     0.739490000000    -0.490885   
O383     O      0.626870000000     0.109960000000     0.733450000000    -0.508806   
O384     O      0.598320000000     0.129740000000     0.755740000000    -0.495926   


