data_structure

_audit_creation_method RASPA-1.0
_audit_creation_date 2023-6-5
_audit_author_name 'Poobodin Mano'

_cell_length_a    43.7956
_cell_length_b    42.5334
_cell_length_c    24.457
_cell_angle_alpha 89.6964
_cell_angle_beta  90.3036
_cell_angle_gamma 89.9995
_cell_volume      45556.6

_symmetry_cell_setting          triclinic
_symmetry_space_group_name_Hall 'P 1'
_symmetry_space_group_name_H-M  'P 1'
_symmetry_Int_Tables_number     1

_symmetry_equiv_pos_as_xyz 'x,y,z'

loop_
_atom_site_label
_atom_site_type_symbol
_atom_site_fract_x
_atom_site_fract_y
_atom_site_fract_z
_atom_site_charge
C1       C      0.324470000000     0.402990000000     0.967750000000     0.413289   
C2       C      0.308870000000     0.320630000000     0.882810000000     0.414594   
C3       C      0.398190000000     0.332390000000     0.980880000000     0.416838   
C4       C      0.315900000000     0.311400000000     0.065730000000     0.414016   
C5       C      0.315210000000     0.633290000000     0.975550000000     0.418603   
C6       C      0.299150000000     0.719820000000     0.065200000000     0.415304   
C7       C      0.385480000000     0.705490000000     0.962560000000     0.415978   
C8       C      0.296580000000     0.726430000000     0.889760000000     0.414393   
C9       C      0.622440000000     0.330950000000     0.990720000000     0.417666   
C10      C      0.713300000000     0.309690000000     0.907420000000     0.419899   
C11      C      0.684080000000     0.403200000000     0.979370000000     0.419782   
C12      C      0.709690000000     0.314710000000     0.080120000000     0.41577    
C13      C      0.675180000000     0.634620000000     0.967540000000     0.412865   
C14      C      0.701540000000     0.723090000000     0.883010000000     0.417982   
C15      C      0.609150000000     0.710830000000     0.959480000000     0.423248   
C16      C      0.691300000000     0.725600000000     0.059580000000     0.418566   
C17      C      0.834170000000     0.127010000000     0.486210000000     0.416993   
C18      C      0.806380000000     0.216190000000     0.580330000000     0.409211   
C19      C      0.895040000000     0.198170000000     0.495090000000     0.418128   
C20      C      0.801840000000     0.219370000000     0.410000000000     0.420708   
C21      C      0.890470000000     0.816490000000     0.458850000000     0.422704   
C22      C      0.806600000000     0.807260000000     0.559520000000     0.416839   
C23      C      0.829350000000     0.895870000000     0.467760000000     0.413401   
C24      C      0.798680000000     0.810200000000     0.380520000000     0.414969   
C25      C      0.113270000000     0.828840000000     0.458600000000     0.41325    
C26      C      0.203720000000     0.811190000000     0.390520000000     0.418379   
C27      C      0.178720000000     0.905030000000     0.472420000000     0.417173   
C28      C      0.197860000000     0.817970000000     0.564210000000     0.412759   
C29      C      0.119670000000     0.205810000000     0.482640000000     0.420005   
C30      C      0.207360000000     0.229710000000     0.560380000000     0.416587   
C31      C      0.182580000000     0.136370000000     0.477030000000     0.417244   
C32      C      0.209980000000     0.220620000000     0.383030000000     0.418533   
C33      C      0.196050000000     0.087090000000     0.521520000000     0.0294254  
C34      C      0.169860000000     0.088030000000     0.436010000000     0.0741828  
C35      C      0.197430000000     0.054140000000     0.519220000000    -0.0507964  
C36      C      0.178630000000     0.985730000000     0.523040000000    -0.0870457  
C37      C      0.170220000000     0.055300000000     0.433760000000    -0.0759755  
C38      C      0.183640000000     0.002930000000     0.474860000000     0.0436329  
C39      C      0.184140000000     0.037900000000     0.475580000000     0.0265813  
C40      C      0.177400000000     0.952970000000     0.521540000000     0.0773976  
C41      C      0.185970000000     0.953610000000     0.425890000000     0.0780673  
C42      C      0.187500000000     0.986410000000     0.425930000000    -0.0870235  
C43      C      0.207330000000     0.101620000000     0.572810000000     0.297628   
C44      C      0.936480000000     0.810650000000     0.405560000000     0.0294496  
C45      C      0.937960000000     0.808630000000     0.502820000000     0.0718635  
C46      C      0.968540000000     0.811940000000     0.404440000000    -0.0525917  
C47      C      0.033070000000     0.837470000000     0.418980000000    -0.0874299  
C48      C      0.969790000000     0.808920000000     0.502550000000    -0.0771474  
C49      C      0.019150000000     0.814810000000     0.452340000000     0.0428668  
C50      C      0.985410000000     0.811650000000     0.453120000000     0.0261894  
C51      C      0.064690000000     0.841530000000     0.420960000000     0.0773951  
C52      C      0.069250000000     0.800540000000     0.486650000000     0.0773928  
C53      C      0.037650000000     0.796050000000     0.486090000000    -0.0866182  
C54      C      0.920450000000     0.806560000000     0.352310000000     0.297121   
C55      C      0.847950000000     0.079080000000     0.439350000000     0.0297418  
C56      C      0.820930000000     0.077560000000     0.523540000000     0.0729642  
C57      C      0.845400000000     0.046280000000     0.435350000000    -0.0509165  
C58      C      0.856000000000     0.977080000000     0.457070000000    -0.0868704  
C59      C      0.818780000000     0.044850000000     0.520910000000    -0.0756112  
C60      C      0.830220000000     0.993900000000     0.473880000000     0.0434546  
C61      C      0.831030000000     0.028820000000     0.476420000000     0.0265393  
C62      C      0.855170000000     0.944340000000     0.455010000000     0.0775647  
C63      C      0.803900000000     0.944170000000     0.485730000000     0.077481   
C64      C      0.803960000000     0.977040000000     0.488410000000    -0.0866216  
C65      C      0.867480000000     0.094790000000     0.397920000000     0.29706    
C66      C      0.943100000000     0.202810000000     0.544550000000     0.0288556  
C67      C      0.941560000000     0.202230000000     0.447340000000     0.0743527  
C68      C      0.974930000000     0.206660000000     0.543000000000    -0.0499759  
C69      C      0.042030000000     0.192870000000     0.531880000000    -0.0861594  
C70      C      0.973270000000     0.204850000000     0.444990000000    -0.0752263  
C71      C      0.024520000000     0.208090000000     0.491480000000     0.0442165  
C72      C      0.990480000000     0.207000000000     0.493130000000     0.0268217  
C73      C      0.073830000000     0.193030000000     0.528890000000     0.0811298  
C74      C      0.071810000000     0.222700000000     0.446650000000     0.0790218  
C75      C      0.039920000000     0.223450000000     0.448820000000    -0.0863048  
C76      C      0.929420000000     0.200230000000     0.599640000000     0.297653   
C77      C      0.715840000000     0.767660000000     0.826710000000     0.0303984  
C78      C      0.736260000000     0.716690000000     0.810500000000     0.0714249  
C79      C      0.730620000000     0.779020000000     0.779780000000    -0.0522206  
C80      C      0.779720000000     0.800320000000     0.700390000000    -0.0875563  
C81      C      0.751560000000     0.727650000000     0.764290000000    -0.0768825  
C82      C      0.764750000000     0.771210000000     0.699160000000     0.0429902  
C83      C      0.748660000000     0.759060000000     0.748210000000     0.0261271  
C84      C      0.794010000000     0.811830000000     0.653470000000     0.0775706  
C85      C      0.779310000000     0.766350000000     0.604190000000     0.076452   
C86      C      0.764930000000     0.754050000000     0.650450000000    -0.0873194  
C87      C      0.700720000000     0.791520000000     0.861500000000     0.294169   
C88      C      0.711640000000     0.770770000000     0.107420000000     0.028668   
C89      C      0.707660000000     0.720850000000     0.151300000000     0.0717149  
C90      C      0.727410000000     0.782520000000     0.153110000000    -0.0512309  
C91      C      0.744150000000     0.805660000000     0.266950000000    -0.0870353  
C92      C      0.722740000000     0.732240000000     0.197470000000    -0.0770791  
C93      C      0.750090000000     0.775510000000     0.246720000000     0.0432467  
C94      C      0.733240000000     0.763240000000     0.198450000000     0.0259434  
C95      C      0.760560000000     0.816900000000     0.311910000000     0.077034   
C96      C      0.788580000000     0.769260000000     0.317390000000     0.0775638  
C97      C      0.772550000000     0.757240000000     0.272660000000    -0.0874744  
C98      C      0.703140000000     0.794000000000     0.064390000000     0.299601   
C99      C      0.727340000000     0.262820000000     0.857390000000     0.0281276  
C100     C      0.741810000000     0.313760000000     0.826250000000     0.0722993  
C101     C      0.739510000000     0.249650000000     0.809500000000    -0.050737   
C102     C      0.753190000000     0.229450000000     0.693020000000    -0.0860516  
C103     C      0.754350000000     0.301140000000     0.778960000000    -0.0761912  
C104     C      0.766940000000     0.254940000000     0.719730000000     0.0434887  
C105     C      0.753150000000     0.268770000000     0.769760000000     0.0262753  
C106     C      0.766650000000     0.216750000000     0.646320000000     0.0783125  
C107     C      0.806830000000     0.253970000000     0.651390000000     0.0781492  
C108     C      0.794140000000     0.267100000000     0.698250000000    -0.086658   
C109     C      0.717170000000     0.240490000000     0.900510000000     0.29806    
C110     C      0.761730000000     0.219550000000     0.341220000000     0.0283204  
C111     C      0.797700000000     0.261340000000     0.346810000000     0.0712269  
C112     C      0.749810000000     0.232680000000     0.292820000000    -0.0507471  
C113     C      0.716530000000     0.273440000000     0.211020000000    -0.0871268  
C114     C      0.785420000000     0.275380000000     0.299910000000    -0.0761829  
C115     C      0.747970000000     0.275470000000     0.221540000000     0.043227   
C116     C      0.761430000000     0.260890000000     0.271770000000     0.0259677  
C117     C      0.704250000000     0.286560000000     0.163400000000     0.0777977  
C118     C      0.753120000000     0.304700000000     0.136520000000     0.077343   
C119     C      0.766280000000     0.291440000000     0.183510000000    -0.0865034  
C120     C      0.745090000000     0.192060000000     0.363900000000     0.296914   
C121     C      0.668170000000     0.451010000000     0.932680000000     0.0270087  
C122     C      0.697410000000     0.452930000000     0.014890000000     0.0706505  
C123     C      0.668980000000     0.483950000000     0.929280000000    -0.0509232  
C124     C      0.654530000000     0.551840000000     0.952740000000    -0.0872693  
C125     C      0.697700000000     0.485740000000     0.013050000000    -0.076239   
C126     C      0.681520000000     0.536670000000     0.969060000000     0.0426999  
C127     C      0.683230000000     0.501690000000     0.970080000000     0.0252219  
C128     C      0.652950000000     0.584580000000     0.952260000000     0.0767844  
C129     C      0.704040000000     0.588050000000     0.984150000000     0.0765291  
C130     C      0.706470000000     0.555240000000     0.984970000000    -0.087092   
C131     C      0.648940000000     0.434930000000     0.891280000000     0.297355   
C132     C      0.192990000000     0.798720000000     0.657270000000     0.0286582  
C133     C      0.241270000000     0.800550000000     0.613020000000     0.0708853  
C134     C      0.207310000000     0.788090000000     0.705420000000    -0.0511174  
C135     C      0.239860000000     0.743970000000     0.783920000000    -0.0879654  
C136     C      0.255810000000     0.789370000000     0.660070000000    -0.0752583  
C137     C      0.253660000000     0.769050000000     0.756170000000     0.0437363  
C138     C      0.238840000000     0.782930000000     0.706940000000     0.0255427  
C139     C      0.254470000000     0.730230000000     0.828830000000     0.0788647  
C140     C      0.295940000000     0.765750000000     0.820240000000     0.0767773  
C141     C      0.281990000000     0.780010000000     0.774930000000    -0.0873505  
C142     C      0.159110000000     0.799320000000     0.657730000000     0.295144   
C143     C      0.249600000000     0.801130000000     0.338580000000     0.0297144  
C144     C      0.202390000000     0.776710000000     0.315380000000     0.0715402  
C145     C      0.262880000000     0.788540000000     0.291350000000    -0.0520102  
C146     C      0.289140000000     0.743470000000     0.207560000000    -0.0871878  
C147     C      0.215300000000     0.763520000000     0.268860000000    -0.0768574  
C148     C      0.259680000000     0.756300000000     0.206040000000     0.0437326  
C149     C      0.245730000000     0.769720000000     0.255950000000     0.0261661  
C150     C      0.301970000000     0.731230000000     0.160060000000     0.0796675  
C151     C      0.257270000000     0.744090000000     0.109530000000     0.0782856  
C152     C      0.243700000000     0.756400000000     0.156280000000    -0.0869522  
C153     C      0.270570000000     0.817210000000     0.377330000000     0.294237   
C154     C      0.562390000000     0.716180000000     0.906820000000     0.0299837  
C155     C      0.562060000000     0.718100000000     0.004070000000     0.0730408  
C156     C      0.530270000000     0.715500000000     0.906360000000    -0.0521508  
C157     C      0.464890000000     0.692460000000     0.923000000000    -0.0879206  
C158     C      0.530240000000     0.718490000000     0.004400000000    -0.0766727  
C159     C      0.480140000000     0.714630000000     0.955270000000     0.0433272  
C160     C      0.513990000000     0.716320000000     0.955330000000     0.0260798  
C161     C      0.433130000000     0.689970000000     0.925480000000     0.0774514  
C162     C      0.431070000000     0.731560000000     0.989570000000     0.0773287  
C163     C      0.462840000000     0.734470000000     0.988540000000    -0.0877242  
C164     C      0.577740000000     0.719810000000     0.853110000000     0.297156   
C165     C      0.207250000000     0.269480000000     0.631340000000     0.0281851  
C166     C      0.247860000000     0.232580000000     0.624020000000     0.0722808  
C167     C      0.222600000000     0.284100000000     0.674940000000    -0.0508462  
C168     C      0.248720000000     0.296010000000     0.788000000000    -0.0870502  
C169     C      0.263020000000     0.246220000000     0.668130000000    -0.0758679  
C170     C      0.265800000000     0.286180000000     0.742890000000     0.0434254  
C171     C      0.250490000000     0.272290000000     0.694220000000     0.0261583  
C172     C      0.263500000000     0.307840000000     0.834240000000     0.0778296  
C173     C      0.311710000000     0.300700000000     0.792440000000     0.0775786  
C174     C      0.297670000000     0.288890000000     0.745430000000    -0.0863029  
C175     C      0.176170000000     0.281430000000     0.618690000000     0.295201   
C176     C      0.242480000000     0.211890000000     0.304530000000     0.0275158  
C177     C      0.222800000000     0.262710000000     0.324390000000     0.070815   
C178     C      0.259560000000     0.224750000000     0.261370000000    -0.0510928  
C179     C      0.275730000000     0.254470000000     0.151830000000    -0.0870424  
C180     C      0.239060000000     0.275790000000     0.281040000000    -0.0765117  
C181     C      0.274640000000     0.270390000000     0.201820000000     0.0431983  
C182     C      0.257880000000     0.256860000000     0.249130000000     0.0255711  
C183     C      0.290230000000     0.268260000000     0.106980000000     0.0775438  
C184     C      0.303290000000     0.312830000000     0.160030000000     0.0768753  
C185     C      0.288950000000     0.299760000000     0.205690000000    -0.0872634  
C186     C      0.242680000000     0.177080000000     0.309580000000     0.295609   
C187     C      0.444590000000     0.303090000000     0.961650000000     0.0278681  
C188     C      0.446240000000     0.353130000000     0.004660000000     0.071804   
C189     C      0.476570000000     0.300880000000     0.966240000000    -0.0508317  
C190     C      0.544300000000     0.313450000000     0.946540000000    -0.0859285  
C191     C      0.477910000000     0.351690000000     0.008470000000    -0.0765546  
C192     C      0.527450000000     0.324490000000     0.991080000000     0.0443575  
C193     C      0.493520000000     0.325410000000     0.989220000000     0.0261042  
C194     C      0.576190000000     0.315160000000     0.947460000000     0.0806113  
C195     C      0.575140000000     0.337660000000     0.035940000000     0.0805546  
C196     C      0.543340000000     0.336210000000     0.036470000000    -0.0872239  
C197     C      0.429170000000     0.277610000000     0.930910000000     0.294278   
C198     C      0.309190000000     0.583610000000     0.023480000000     0.0268624  
C199     C      0.311430000000     0.585970000000     0.926330000000     0.0719318  
C200     C      0.310150000000     0.550610000000     0.021290000000    -0.0509558  
C201     C      0.296730000000     0.481240000000     0.003910000000    -0.0873668  
C202     C      0.311600000000     0.553290000000     0.923220000000    -0.0771444  
C203     C      0.313650000000     0.500330000000     0.968330000000     0.0430813  
C204     C      0.311660000000     0.535180000000     0.970990000000     0.0254653  
C205     C      0.300120000000     0.448600000000     0.002380000000     0.0774001  
C206     C      0.335930000000     0.453170000000     0.930380000000     0.0775893  
C207     C      0.333160000000     0.485850000000     0.930860000000    -0.0875254  
C208     C      0.303760000000     0.597720000000     0.078000000000     0.296284   
H1       H      0.173240000000     0.940550000000     0.559630000000     0.0342652  
H2       H      0.159020000000     0.100320000000     0.402120000000     0.0396098  
H3       H      0.191830000000     0.998700000000     0.387860000000     0.0586138  
H4       H      0.159180000000     0.043730000000     0.399630000000     0.0557759  
H5       H      0.175010000000     0.997470000000     0.561660000000     0.0590681  
H6       H      0.208220000000     0.041150000000     0.552350000000     0.0586281  
H7       H      0.188940000000     0.941670000000     0.387200000000     0.0345466  
H8       H      0.243240000000     0.103220000000     0.625590000000     0.189117   
H9       H      0.074570000000     0.859690000000     0.395300000000     0.0331294  
H10      H      0.926910000000     0.808040000000     0.542400000000     0.0345169  
H11      H      0.027790000000     0.778030000000     0.512000000000     0.0585218  
H12      H      0.982040000000     0.808410000000     0.541140000000     0.0550847  
H13      H      0.019540000000     0.852600000000     0.392600000000     0.0605978  
H14      H      0.980410000000     0.812230000000     0.365630000000     0.0599325  
H15      H      0.082800000000     0.785770000000     0.513690000000     0.0404937  
H16      H      0.886880000000     0.782280000000     0.313360000000     0.186036   
H17      H      0.875680000000     0.932270000000     0.442030000000     0.0353333  
H18      H      0.810680000000     0.088930000000     0.558540000000     0.0382203  
H19      H      0.783470000000     0.989130000000     0.501220000000     0.0584046  
H20      H      0.807890000000     0.032190000000     0.554040000000     0.0558095  
H21      H      0.876950000000     0.989100000000     0.446320000000     0.0593788  
H22      H      0.855470000000     0.034260000000     0.400840000000     0.0599674  
H23      H      0.783190000000     0.931900000000     0.497200000000     0.0336716  
H24      H      0.876430000000     0.097610000000     0.316640000000     0.18888    
H25      H      0.086420000000     0.180680000000     0.560700000000     0.0383151  
H26      H      0.929450000000     0.200650000000     0.408650000000     0.0398264  
H27      H      0.027510000000     0.236040000000     0.417180000000     0.057489   
H28      H      0.984160000000     0.204490000000     0.405370000000     0.0555567  
H29      H      0.031350000000     0.180110000000     0.565080000000     0.0604334  
H30      H      0.987560000000     0.208760000000     0.581060000000     0.0573859  
H31      H      0.082870000000     0.234550000000     0.412740000000     0.0342769  
H32      H      0.923650000000     0.223200000000     0.671410000000     0.188233   
H33      H      0.805220000000     0.834510000000     0.655960000000     0.0332677  
H34      H      0.738800000000     0.691970000000     0.820670000000     0.034382   
H35      H      0.753460000000     0.731540000000     0.647700000000     0.0573524  
H36      H      0.765710000000     0.711560000000     0.741410000000     0.0545752  
H37      H      0.780530000000     0.814110000000     0.737470000000     0.0589809  
H38      H      0.728530000000     0.803630000000     0.768510000000     0.0596764  
H39      H      0.778620000000     0.752560000000     0.567030000000     0.0326038  
H40      H      0.672550000000     0.829450000000     0.859960000000     0.19036    
H41      H      0.755300000000     0.840320000000     0.326450000000     0.0335285  
H42      H      0.700680000000     0.696380000000     0.152080000000     0.0344921  
H43      H      0.778100000000     0.733970000000     0.257960000000     0.0574801  
H44      H      0.726210000000     0.716720000000     0.232210000000     0.054254   
H45      H      0.726710000000     0.820400000000     0.248540000000     0.0589895  
H46      H      0.734780000000     0.806860000000     0.153540000000     0.0601351  
H47      H      0.805920000000     0.754460000000     0.336120000000     0.0345428  
H48      H      0.718920000000     0.830680000000     0.019140000000     0.195668   
H49      H      0.755340000000     0.197060000000     0.626810000000     0.0370439  
H50      H      0.742760000000     0.339120000000     0.830540000000     0.0368758  
H51      H      0.805920000000     0.286390000000     0.717920000000     0.0578258  
H52      H      0.764430000000     0.316940000000     0.749230000000     0.0548561  
H53      H      0.731960000000     0.219520000000     0.707640000000     0.0612795  
H54      H      0.739610000000     0.224330000000     0.804540000000     0.0594187  
H55      H      0.827950000000     0.264040000000     0.636320000000     0.0363438  
H56      H      0.720530000000     0.229790000000     0.981410000000     0.185669   
H57      H      0.679820000000     0.284350000000     0.156900000000     0.0348637  
H58      H      0.816740000000     0.273250000000     0.366250000000     0.0354625  
H59      H      0.790730000000     0.293320000000     0.189440000000     0.0573048  
H60      H      0.794720000000     0.297600000000     0.286030000000     0.0539518  
H61      H      0.701260000000     0.262070000000     0.239640000000     0.0585637  
H62      H      0.731010000000     0.221040000000     0.272210000000     0.0591724  
H63      H      0.768010000000     0.316750000000     0.107980000000     0.0331149  
H64      H      0.726600000000     0.149720000000     0.344600000000     0.189167   
H65      H      0.631580000000     0.595300000000     0.939500000000     0.0347056  
H66      H      0.709110000000     0.441750000000     0.049020000000     0.0347303  
H67      H      0.727850000000     0.544540000000     0.997450000000     0.0567009  
H68      H      0.708720000000     0.498500000000     0.045890000000     0.05365    
H69      H      0.634450000000     0.538530000000     0.941180000000     0.0584308  
H70      H      0.657560000000     0.495780000000     0.895500000000     0.0576882  
H71      H      0.723810000000     0.601650000000     0.996630000000     0.0328412  
H72      H      0.641060000000     0.430780000000     0.809730000000     0.187457   
H73      H      0.243150000000     0.710660000000     0.848810000000     0.035452   
H74      H      0.255570000000     0.805410000000     0.577890000000     0.0421735  
H75      H      0.293290000000     0.799530000000     0.754850000000     0.0579161  
H76      H      0.280210000000     0.785240000000     0.659280000000     0.0557818  
H77      H      0.218190000000     0.734460000000     0.770320000000     0.0591679  
H78      H      0.193690000000     0.782860000000     0.741250000000     0.0586178  
H79      H      0.317910000000     0.774750000000     0.833530000000     0.0322959  
H80      H      0.122270000000     0.813920000000     0.700840000000     0.186807   
H81      H      0.324800000000     0.721450000000     0.162860000000     0.0353347  
H82      H      0.178460000000     0.771800000000     0.322800000000     0.0348705  
H83      H      0.220990000000     0.766380000000     0.153230000000     0.0579365  
H84      H      0.201420000000     0.748520000000     0.243100000000     0.0554203  
H85      H      0.302120000000     0.742550000000     0.245360000000     0.0590894  
H86      H      0.286750000000     0.793030000000     0.282680000000     0.0597609  
H87      H      0.244250000000     0.744770000000     0.071700000000     0.0339489  
H88      H      0.305680000000     0.848280000000     0.382510000000     0.187455   
H89      H      0.422180000000     0.672160000000     0.900580000000     0.0328126  
H90      H      0.573550000000     0.718530000000     0.043460000000     0.0367064  
H91      H      0.473780000000     0.752160000000     0.013630000000     0.0585296  
H92      H      0.518460000000     0.719290000000     0.043200000000     0.055284   
H93      H      0.477460000000     0.676550000000     0.897020000000     0.0603208  
H94      H      0.517940000000     0.715440000000     0.867770000000     0.0596989  
H95      H      0.418460000000     0.747190000000     0.016100000000     0.0338     
H96      H      0.610200000000     0.744400000000     0.811990000000     0.189823   
H97      H      0.249480000000     0.314900000000     0.868490000000     0.0331951  
H98      H      0.258810000000     0.212540000000     0.605110000000     0.0392059  
H99      H      0.311770000000     0.282000000000     0.711270000000     0.0583889  
H100     H      0.284290000000     0.235920000000     0.682220000000     0.0559904  
H101     H      0.224080000000     0.293920000000     0.788280000000     0.0590175  
H102     H      0.212320000000     0.304210000000     0.694760000000     0.0578918  
H103     H      0.336430000000     0.302260000000     0.792940000000     0.0387189  
H104     H      0.151720000000     0.320970000000     0.602310000000     0.187532   
H105     H      0.290110000000     0.255450000000     0.068750000000     0.0341473  
H106     H      0.208930000000     0.278590000000     0.348360000000     0.0357568  
H107     H      0.289040000000     0.312650000000     0.243770000000     0.0573106  
H108     H      0.236600000000     0.300660000000     0.272300000000     0.0546952  
H109     H      0.264720000000     0.231860000000     0.146830000000     0.0590286  
H110     H      0.273610000000     0.209530000000     0.236470000000     0.0591877  
H111     H      0.313810000000     0.335760000000     0.164500000000     0.0334103  
H112     H      0.270190000000     0.138640000000     0.310570000000     0.188399   
H113     H      0.588440000000     0.306970000000     0.911860000000     0.0370206  
H114     H      0.435410000000     0.374060000000     0.020680000000     0.0358096  
H115     H      0.531270000000     0.344470000000     0.072170000000     0.0577944  
H116     H      0.490110000000     0.371500000000     0.025660000000     0.0552678  
H117     H      0.532970000000     0.304480000000     0.910370000000     0.0601927  
H118     H      0.488270000000     0.280380000000     0.950530000000     0.0588464  
H119     H      0.586520000000     0.347300000000     0.071600000000     0.0344886  
H120     H      0.425040000000     0.230190000000     0.924870000000     0.188062   
H121     H      0.286940000000     0.434620000000     0.030980000000     0.0336169  
H122     H      0.312340000000     0.598850000000     0.887970000000     0.036147   
H123     H      0.346890000000     0.499660000000     0.902950000000     0.0573823  
H124     H      0.311960000000     0.542310000000     0.883370000000     0.054318   
H125     H      0.280960000000     0.491400000000     0.032830000000     0.058147   
H126     H      0.309480000000     0.537010000000     0.058880000000     0.0590228  
H127     H      0.351660000000     0.442920000000     0.901380000000     0.0338312  
H128     H      0.316030000000     0.595550000000     0.158140000000     0.187418   
In1      In     0.336850000000     0.340900000000     0.974960000000     2.42207    
In2      In     0.324650000000     0.696350000000     0.973500000000     2.41802    
In3      In     0.683550000000     0.339590000000     0.989070000000     2.42553    
In4      In     0.669650000000     0.698030000000     0.967400000000     2.42336    
In5      In     0.833540000000     0.190660000000     0.492020000000     2.43126    
In6      In     0.830730000000     0.832220000000     0.467180000000     2.41321    
In7      In     0.173400000000     0.841580000000     0.470640000000     2.42134    
In8      In     0.180930000000     0.199860000000     0.474390000000     2.43271    
N1       N      0.182830000000     0.104040000000     0.478950000000    -0.176303   
N2       N      0.180810000000     0.937110000000     0.473280000000    -0.194812   
N3       N      0.921340000000     0.811100000000     0.455170000000    -0.178014   
N4       N      0.082530000000     0.823450000000     0.455010000000    -0.192975   
N5       N      0.834790000000     0.094750000000     0.482880000000    -0.177094   
N6       N      0.829360000000     0.928040000000     0.469310000000    -0.19341    
N7       N      0.926360000000     0.200960000000     0.496370000000    -0.176889   
N8       N      0.088540000000     0.207410000000     0.486190000000    -0.193079   
N9       N      0.717920000000     0.736110000000     0.840800000000    -0.178264   
N10      N      0.793500000000     0.795100000000     0.605670000000    -0.194952   
N11      N      0.703000000000     0.739410000000     0.105860000000    -0.178125   
N12      N      0.782630000000     0.798840000000     0.336740000000    -0.194004   
N13      N      0.727690000000     0.295120000000     0.864600000000    -0.177469   
N14      N      0.793240000000     0.228960000000     0.625780000000    -0.19182    
N15      N      0.786640000000     0.233330000000     0.366860000000    -0.178901   
N16      N      0.722390000000     0.302060000000     0.126500000000    -0.19415    
N17      N      0.682960000000     0.435480000000     0.975260000000    -0.178569   
N18      N      0.677470000000     0.602520000000     0.967920000000    -0.193698   
N19      N      0.210260000000     0.805590000000     0.611370000000    -0.176719   
N20      N      0.282350000000     0.740910000000     0.846560000000    -0.193837   
N21      N      0.218890000000     0.796190000000     0.349080000000    -0.178254   
N22      N      0.286170000000     0.731670000000     0.111480000000    -0.193245   
N23      N      0.578130000000     0.715670000000     0.956140000000    -0.177307   
N24      N      0.416440000000     0.709170000000     0.958890000000    -0.194527   
N25      N      0.220360000000     0.244010000000     0.605150000000    -0.177742   
N26      N      0.294730000000     0.309870000000     0.836540000000    -0.19359    
N27      N      0.224830000000     0.231260000000     0.337110000000    -0.179173   
N28      N      0.303480000000     0.297380000000     0.110920000000    -0.194258   
N29      N      0.429450000000     0.329160000000     0.981920000000    -0.178558   
N30      N      0.591370000000     0.327700000000     0.991440000000    -0.192578   
N31      N      0.311410000000     0.601190000000     0.975780000000    -0.178599   
N32      N      0.319910000000     0.434790000000     0.966450000000    -0.193829   
O1       O      0.327450000000     0.338580000000     0.066700000000    -0.498222   
O2       O      0.315610000000     0.298790000000     0.019120000000    -0.501062   
O3       O      0.294320000000     0.329610000000     0.924350000000    -0.503175   
O4       O      0.311490000000     0.385090000000     0.001850000000    -0.493326   
O5       O      0.385060000000     0.357670000000     0.993790000000    -0.503608   
O6       O      0.343070000000     0.389340000000     0.936530000000    -0.498854   
O7       O      0.337550000000     0.321980000000     0.887770000000    -0.490464   
O8       O      0.380030000000     0.310750000000     0.967250000000    -0.481813   
O9       O      0.285220000000     0.702940000000     0.914000000000    -0.49246    
O10      O      0.322250000000     0.735110000000     0.908190000000    -0.501792   
O11      O      0.285720000000     0.719990000000     0.019420000000    -0.500228   
O12      O      0.320810000000     0.649070000000     0.017920000000    -0.48927    
O13      O      0.371200000000     0.683950000000     0.937960000000    -0.505915   
O14      O      0.315170000000     0.649400000000     0.932080000000    -0.49479    
O15      O      0.325520000000     0.707830000000     0.064720000000    -0.487222   
O16      O      0.368940000000     0.722800000000     0.991980000000    -0.495673   
O17      O      0.681900000000     0.311150000000     0.067960000000    -0.500735   
O18      O      0.724650000000     0.330910000000     0.046060000000    -0.49612    
O19      O      0.717140000000     0.338450000000     0.918150000000    -0.501758   
O20      O      0.638730000000     0.322220000000     0.951050000000    -0.486189   
O21      O      0.694730000000     0.388990000000     0.020820000000    -0.49879    
O22      O      0.637090000000     0.343700000000     0.029270000000    -0.496709   
O23      O      0.693980000000     0.296180000000     0.937600000000    -0.48436    
O24      O      0.674640000000     0.385080000000     0.942380000000    -0.491245   
O25      O      0.692140000000     0.738410000000     0.013070000000    -0.482717   
O26      O      0.680110000000     0.698200000000     0.059400000000    -0.495289   
O27      O      0.706820000000     0.695900000000     0.901850000000    -0.499758   
O28      O      0.696650000000     0.652520000000     0.982570000000    -0.490719   
O29      O      0.623760000000     0.711990000000     0.004140000000    -0.498639   
O30      O      0.651240000000     0.648780000000     0.952330000000    -0.504069   
O31      O      0.679410000000     0.736780000000     0.905420000000    -0.475559   
O32      O      0.625170000000     0.702660000000     0.919250000000    -0.480219   
O33      O      0.796130000000     0.192000000000     0.426950000000    -0.492069   
O34      O      0.824000000000     0.232260000000     0.434390000000    -0.502004   
O35      O      0.795650000000     0.192370000000     0.556170000000    -0.487558   
O36      O      0.826390000000     0.141480000000     0.528970000000    -0.486877   
O37      O      0.879850000000     0.197750000000     0.451010000000    -0.490425   
O38      O      0.840420000000     0.144810000000     0.446490000000    -0.4861     
O39      O      0.830530000000     0.227110000000     0.559520000000    -0.493937   
O40      O      0.878850000000     0.195560000000     0.537320000000    -0.483697   
O41      O      0.819280000000     0.794530000000     0.404460000000    -0.492537   
O42      O      0.794160000000     0.837160000000     0.400330000000    -0.499859   
O43      O      0.819930000000     0.833580000000     0.558570000000    -0.498886   
O44      O      0.876140000000     0.815220000000     0.503590000000    -0.501408   
O45      O      0.806450000000     0.879390000000     0.480670000000    -0.487658   
O46      O      0.874500000000     0.825940000000     0.418970000000    -0.482189   
O47      O      0.805820000000     0.793400000000     0.514060000000    -0.503691   
O48      O      0.852520000000     0.880210000000     0.454010000000    -0.500854   
O49      O      0.212740000000     0.820440000000     0.520310000000    -0.489694   
O50      O      0.170990000000     0.828480000000     0.560990000000    -0.474926   
O51      O      0.177020000000     0.803680000000     0.405030000000    -0.502584   
O52      O      0.126350000000     0.850960000000     0.433180000000    -0.503443   
O53      O      0.174370000000     0.888740000000     0.514910000000    -0.505669   
O54      O      0.130720000000     0.812770000000     0.489050000000    -0.483785   
O55      O      0.214540000000     0.834530000000     0.415630000000    -0.480392   
O56      O      0.180530000000     0.889290000000     0.428980000000    -0.496346   
O57      O      0.191130000000     0.237190000000     0.409030000000    -0.499752   
O58      O      0.214680000000     0.194020000000     0.404250000000    -0.493153   
O59      O      0.184060000000     0.240070000000     0.535840000000    -0.490591   
O60      O      0.136000000000     0.193020000000     0.519190000000    -0.496546   
O61      O      0.168280000000     0.151710000000     0.440520000000    -0.493197   
O62      O      0.134350000000     0.216100000000     0.441930000000    -0.492975   
O63      O      0.218010000000     0.204890000000     0.539810000000    -0.488983   
O64      O      0.196830000000     0.153380000000     0.510730000000    -0.473507   
O65      O      0.235520000000     0.094510000000     0.591760000000    -0.328054   
O66      O      0.190640000000     0.118730000000     0.599350000000    -0.21667    
O67      O      0.897470000000     0.785530000000     0.347700000000    -0.316408   
O68      O      0.928790000000     0.821340000000     0.312060000000    -0.231661   
O69      O      0.863680000000     0.088120000000     0.344390000000    -0.328279   
O70      O      0.887940000000     0.112530000000     0.412270000000    -0.220629   
O71      O      0.931940000000     0.224430000000     0.634860000000    -0.328303   
O72      O      0.917200000000     0.175750000000     0.614100000000    -0.21742    
O73      O      0.682290000000     0.813340000000     0.838350000000    -0.328414   
O74      O      0.706020000000     0.792390000000     0.910600000000    -0.209087   
O75      O      0.724000000000     0.815010000000     0.046560000000    -0.32682    
O76      O      0.676970000000     0.795100000000     0.046840000000    -0.212943   
O77      O      0.726590000000     0.244240000000     0.952770000000    -0.321617   
O78      O      0.701320000000     0.217900000000     0.888370000000    -0.229903   
O79      O      0.737880000000     0.167690000000     0.331080000000    -0.328342   
O80      O      0.736620000000     0.192070000000     0.411440000000    -0.220744   
O81      O      0.653630000000     0.440500000000     0.837570000000    -0.330084   
O82      O      0.627900000000     0.417950000000     0.905670000000    -0.22383    
O83      O      0.144340000000     0.813660000000     0.699010000000    -0.329309   
O84      O      0.144550000000     0.785530000000     0.622440000000    -0.216616   
O85      O      0.291430000000     0.837880000000     0.358250000000    -0.329972   
O86      O      0.269990000000     0.810740000000     0.426070000000    -0.215718   
O87      O      0.600080000000     0.741410000000     0.846710000000    -0.312276   
O88      O      0.569340000000     0.704170000000     0.814030000000    -0.231524   
O89      O      0.171830000000     0.312460000000     0.609650000000    -0.3304     
O90      O      0.154310000000     0.263570000000     0.619250000000    -0.217526   
O91      O      0.269450000000     0.161350000000     0.308300000000    -0.329966   
O92      O      0.218660000000     0.162520000000     0.312190000000    -0.220026   
O93      O      0.434350000000     0.247310000000     0.944850000000    -0.329328   
O94      O      0.413110000000     0.283860000000     0.891300000000    -0.215463   
O95      O      0.319490000000     0.587120000000     0.122020000000    -0.331359   
O96      O      0.284100000000     0.617830000000     0.083650000000    -0.222951   


