data_structure

_audit_creation_method RASPA-1.0
_audit_creation_date 2023-5-23
_audit_author_name 'Poobodin Mano'

_cell_length_a    47.39
_cell_length_b    47.4273
_cell_length_c    45.2743
_cell_angle_alpha 89.9906
_cell_angle_beta  90.3304
_cell_angle_gamma 120.083
_cell_volume      88049

_symmetry_cell_setting          triclinic
_symmetry_space_group_name_Hall 'P 1'
_symmetry_space_group_name_H-M  'P 1'
_symmetry_Int_Tables_number     1

_symmetry_equiv_pos_as_xyz 'x,y,z'

loop_
_atom_site_label
_atom_site_type_symbol
_atom_site_fract_x
_atom_site_fract_y
_atom_site_fract_z
_atom_site_charge
C1       C      0.487400000000     0.329460000000     0.160290000000     0.411552   
C2       C      0.490290000000     0.418770000000     0.207120000000     0.410978   
C3       C      0.572610000000     0.414210000000     0.163650000000     0.411425   
C4       C      0.483670000000     0.412050000000     0.116160000000     0.410441   
C5       C      0.320080000000     0.497670000000     0.414550000000     0.411352   
C6       C      0.409390000000     0.501140000000     0.365430000000     0.411056   
C7       C      0.405200000000     0.583000000000     0.407390000000     0.41162    
C8       C      0.402100000000     0.493700000000     0.456780000000     0.410884   
C9       C      0.777460000000     0.328630000000     0.162900000000     0.411666   
C10      C      0.864140000000     0.417670000000     0.115300000000     0.411567   
C11      C      0.777750000000     0.413720000000     0.157930000000     0.411146   
C12      C      0.864120000000     0.410740000000     0.206390000000     0.410364   
C13      C      0.114120000000     0.496460000000     0.409760000000     0.411555   
C14      C      0.027450000000     0.498990000000     0.457250000000     0.41143    
C15      C      0.114030000000     0.581370000000     0.414910000000     0.411266   
C16      C      0.027710000000     0.492160000000     0.366140000000     0.410446   
C17      C      0.571410000000     0.123610000000     0.158470000000     0.411524   
C18      C      0.482190000000     0.037720000000     0.207780000000     0.411059   
C19      C      0.486330000000     0.123720000000     0.165740000000     0.411903   
C20      C      0.489390000000     0.037440000000     0.116440000000     0.411224   
C21      C      0.404460000000     0.787820000000     0.412860000000     0.41143    
C22      C      0.401600000000     0.874320000000     0.366130000000     0.410731   
C23      C      0.319280000000     0.787250000000     0.409550000000     0.411246   
C24      C      0.408130000000     0.874120000000     0.457070000000     0.410074   
C25      C      0.449680000000     0.926320000000     0.305120000000    -0.0863939  
C26      C      0.433320000000     0.943380000000     0.298720000000     0.0357223  
C27      C      0.405280000000     0.935900000000     0.314940000000    -0.0858722  
C28      C      0.394630000000     0.912320000000     0.337170000000     0.0728993  
C29      C      0.438570000000     0.903220000000     0.327620000000     0.0739823  
C30      C      0.445860000000     0.969010000000     0.275480000000     0.0357377  
C31      C      0.479510000000     0.989110000000     0.271410000000    -0.0863502  
C32      C      0.491130000000     0.012100000000     0.248810000000     0.0739478  
C33      C      0.437110000000     0.996970000000     0.234640000000     0.0728738  
C34      C      0.424580000000     0.973410000000     0.256910000000    -0.0858346  
C35      C      0.411180000000     0.925320000000     0.518670000000    -0.0863036  
C36      C      0.444660000000     0.943010000000     0.525060000000     0.0356767  
C37      C      0.465570000000     0.936200000000     0.508630000000    -0.0857849  
C38      C      0.452920000000     0.912660000000     0.486220000000     0.0728541  
C39      C      0.399450000000     0.902270000000     0.496000000000     0.0739024  
C40      C      0.457460000000     0.968600000000     0.048470000000     0.0357785  
C41      C      0.443350000000     0.988120000000     0.052820000000    -0.0863089  
C42      C      0.454530000000     0.011140000000     0.075530000000     0.0739097  
C43      C      0.494280000000     0.997130000000     0.089310000000     0.0729957  
C44      C      0.483460000000     0.973570000000     0.066930000000    -0.0859521  
C45      C      0.172430000000     0.663310000000     0.389300000000    -0.0860603  
C46      C      0.193710000000     0.675780000000     0.413590000000     0.0356243  
C47      C      0.185790000000     0.656830000000     0.439290000000    -0.0860276  
C48      C      0.158150000000     0.625790000000     0.439800000000     0.0733248  
C49      C      0.145160000000     0.632050000000     0.390490000000     0.073547   
C50      C      0.225050000000     0.707230000000     0.411560000000     0.0357092  
C51      C      0.243210000000     0.716010000000     0.385390000000    -0.0860991  
C52      C      0.274190000000     0.743740000000     0.384730000000     0.0734001  
C53      C      0.269410000000     0.755120000000     0.434830000000     0.0737278  
C54      C      0.238230000000     0.727740000000     0.436220000000    -0.0862798  
C55      C      0.646350000000     0.195230000000     0.133800000000    -0.0862067  
C56      C      0.665930000000     0.203130000000     0.159250000000     0.0357309  
C57      C      0.654070000000     0.181920000000     0.183410000000    -0.0862741  
C58      C      0.622770000000     0.154650000000     0.182340000000     0.073655   
C59      C      0.615250000000     0.167650000000     0.133440000000     0.0733408  
C60      C      0.697440000000     0.234440000000     0.161200000000     0.0357046  
C61      C      0.717600000000     0.247260000000     0.136490000000    -0.0863005  
C62      C      0.745040000000     0.278410000000     0.137790000000     0.0736844  
C63      C      0.734310000000     0.283890000000     0.187900000000     0.0733248  
C64      C      0.706580000000     0.252900000000     0.187330000000    -0.0860868  
C65      C      0.927000000000     0.415730000000     0.257100000000    -0.0857837  
C66      C      0.933130000000     0.442720000000     0.274500000000     0.035628   
C67      C      0.914680000000     0.457850000000     0.269060000000    -0.0863432  
C68      C      0.891600000000     0.446640000000     0.246330000000     0.0739233  
C69      C      0.903410000000     0.404930000000     0.234660000000     0.0728893  
C70      C      0.958780000000     0.455480000000     0.297950000000     0.0357787  
C71      C      0.964490000000     0.434440000000     0.315510000000    -0.08579    
C72      C      0.988080000000     0.447120000000     0.337970000000     0.0725406  
C73      C      0.000690000000     0.500840000000     0.325980000000     0.0743878  
C74      C      0.977630000000     0.489080000000     0.303230000000    -0.0867714  
C75      C      0.927120000000     0.475270000000     0.065190000000    -0.0858414  
C76      C      0.932970000000     0.454230000000     0.047850000000     0.0356811  
C77      C      0.914310000000     0.420650000000     0.053120000000    -0.0863039  
C78      C      0.891310000000     0.408930000000     0.075650000000     0.0739577  
C79      C      0.903580000000     0.462630000000     0.087400000000     0.0729428  
C80      C      0.958550000000     0.466960000000     0.524630000000     0.0357676  
C81      C      0.964590000000     0.493920000000     0.507270000000    -0.0858412  
C82      C      0.988150000000     0.504730000000     0.485080000000     0.0726771  
C83      C      0.000030000000     0.463060000000     0.496860000000     0.074445   
C84      C      0.977010000000     0.451860000000     0.519370000000    -0.0867454  
C85      C      0.429430000000     0.665410000000     0.432340000000    -0.086232   
C86      C      0.419500000000     0.677130000000     0.408350000000     0.0356461  
C87      C      0.407500000000     0.657550000000     0.382980000000    -0.0860343  
C88      C      0.404270000000     0.626610000000     0.382530000000     0.0731909  
C89      C      0.425630000000     0.634260000000     0.431200000000     0.0736946  
C90      C      0.419420000000     0.708440000000     0.410440000000     0.0356912  
C91      C      0.410670000000     0.717530000000     0.436820000000    -0.0860802  
C92      C      0.407160000000     0.745050000000     0.437590000000     0.0732816  
C93      C      0.421900000000     0.755650000000     0.387160000000     0.0736623  
C94      C      0.425890000000     0.728440000000     0.385650000000    -0.0862815  
C95      C      0.245080000000     0.494190000000     0.439080000000    -0.0860385  
C96      C      0.225570000000     0.482570000000     0.413580000000     0.0356257  
C97      C      0.237510000000     0.473310000000     0.389430000000    -0.0861895  
C98      C      0.268790000000     0.477370000000     0.390550000000     0.0736209  
C99      C      0.276180000000     0.497740000000     0.439500000000     0.0732526  
C100     C      0.194080000000     0.482340000000     0.411580000000     0.0357519  
C101     C      0.173850000000     0.474900000000     0.436250000000    -0.086382   
C102     C      0.146420000000     0.478580000000     0.434900000000     0.073783   
C103     C      0.157310000000     0.494960000000     0.384830000000     0.073288   
C104     C      0.185020000000     0.491730000000     0.385440000000    -0.0861143  
C105     C      0.653660000000     0.435950000000     0.136940000000    -0.0862631  
C106     C      0.666810000000     0.428510000000     0.161550000000     0.0356547  
C107     C      0.648630000000     0.418990000000     0.187700000000    -0.086036   
C108     C      0.617670000000     0.415720000000     0.188400000000     0.0732928  
C109     C      0.622500000000     0.432120000000     0.138360000000     0.073745   
C110     C      0.698150000000     0.428420000000     0.159460000000     0.0357059  
C111     C      0.706080000000     0.417540000000     0.133680000000    -0.086145   
C112     C      0.733700000000     0.414170000000     0.133110000000     0.0733421  
C113     C      0.746640000000     0.433130000000     0.182500000000     0.0736722  
C114     C      0.719390000000     0.437100000000     0.183770000000    -0.0862404  
C115     C      0.481160000000     0.252940000000     0.136320000000    -0.0860538  
C116     C      0.472310000000     0.235040000000     0.162670000000     0.0357057  
C117     C      0.465800000000     0.248540000000     0.187440000000    -0.08628    
C118     C      0.469840000000     0.279770000000     0.185940000000     0.0737258  
C119     C      0.484730000000     0.284010000000     0.135550000000     0.0732297  
C120     C      0.472180000000     0.203620000000     0.164760000000     0.035676   
C121     C      0.462260000000     0.181990000000     0.140760000000    -0.0861439  
C122     C      0.466010000000     0.154610000000     0.141900000000     0.0735714  
C123     C      0.487280000000     0.168280000000     0.190600000000     0.0732653  
C124     C      0.484090000000     0.196000000000     0.190150000000    -0.0861029  
C125     C      0.448140000000     0.490610000000     0.520450000000    -0.0863308  
C126     C      0.434120000000     0.456960000000     0.524790000000     0.0357256  
C127     C      0.408160000000     0.435850000000     0.506320000000    -0.0858836  
C128     C      0.397300000000     0.448530000000     0.483930000000     0.0729001  
C129     C      0.436920000000     0.502380000000     0.497740000000     0.0740221  
C130     C      0.446980000000     0.444240000000     0.048210000000     0.0357563  
C131     C      0.480460000000     0.460180000000     0.054600000000    -0.0863309  
C132     C      0.492240000000     0.448910000000     0.077270000000     0.0738495  
C133     C      0.438830000000     0.405620000000     0.087030000000     0.0729626  
C134     C      0.426120000000     0.416450000000     0.064620000000    -0.0858523  
C135     C      0.467100000000     0.494740000000     0.316290000000    -0.0857961  
C136     C      0.445870000000     0.468920000000     0.297790000000     0.0357008  
C137     C      0.412210000000     0.455160000000     0.301930000000    -0.0863232  
C138     C      0.400540000000     0.466460000000     0.324510000000     0.0739749  
C139     C      0.454520000000     0.505700000000     0.338540000000     0.0728232  
C140     C      0.458470000000     0.455910000000     0.274560000000     0.0357232  
C141     C      0.486430000000     0.476570000000     0.258280000000    -0.0858319  
C142     C      0.497130000000     0.463710000000     0.236050000000     0.0728883  
C143     C      0.453390000000     0.410520000000     0.245730000000     0.0739272  
C144     C      0.442240000000     0.422450000000     0.268230000000    -0.086376   
C145     C      0.487410000000     0.329460000000     0.660290000000     0.411496   
C146     C      0.490290000000     0.418770000000     0.707120000000     0.410891   
C147     C      0.572610000000     0.414200000000     0.663650000000     0.411265   
C148     C      0.483660000000     0.412050000000     0.616160000000     0.410403   
C149     C      0.320080000000     0.497670000000     0.914550000000     0.411312   
C150     C      0.409400000000     0.501140000000     0.865430000000     0.411013   
C151     C      0.405200000000     0.583000000000     0.907390000000     0.411687   
C152     C      0.402100000000     0.493700000000     0.956780000000     0.410868   
C153     C      0.777460000000     0.328630000000     0.662900000000     0.411621   
C154     C      0.864140000000     0.417670000000     0.615300000000     0.411437   
C155     C      0.777750000000     0.413720000000     0.657930000000     0.411152   
C156     C      0.864120000000     0.410740000000     0.706390000000     0.41037    
C157     C      0.114120000000     0.496460000000     0.909760000000     0.411415   
C158     C      0.027450000000     0.498990000000     0.957250000000     0.411058   
C159     C      0.114030000000     0.581370000000     0.914910000000     0.411266   
C160     C      0.027710000000     0.492160000000     0.866140000000     0.410445   
C161     C      0.571410000000     0.123610000000     0.658470000000     0.411516   
C162     C      0.482190000000     0.037720000000     0.707780000000     0.411051   
C163     C      0.486330000000     0.123720000000     0.665740000000     0.412063   
C164     C      0.489390000000     0.037440000000     0.616440000000     0.410846   
C165     C      0.404460000000     0.787820000000     0.912860000000     0.411437   
C166     C      0.401600000000     0.874320000000     0.866130000000     0.410731   
C167     C      0.319280000000     0.787250000000     0.909550000000     0.411282   
C168     C      0.408130000000     0.874120000000     0.957080000000     0.410028   
C169     C      0.449680000000     0.926320000000     0.805120000000    -0.0864066  
C170     C      0.433320000000     0.943380000000     0.798720000000     0.0357495  
C171     C      0.405280000000     0.935900000000     0.814930000000    -0.0858745  
C172     C      0.394630000000     0.912320000000     0.837170000000     0.0728736  
C173     C      0.438570000000     0.903220000000     0.827620000000     0.0739846  
C174     C      0.445860000000     0.969010000000     0.775490000000     0.0356944  
C175     C      0.479510000000     0.989110000000     0.771410000000    -0.0863321  
C176     C      0.491130000000     0.012100000000     0.748810000000     0.0739508  
C177     C      0.437110000000     0.996970000000     0.734640000000     0.0728604  
C178     C      0.424580000000     0.973410000000     0.756910000000    -0.0858051  
C179     C      0.411180000000     0.925320000000     0.018670000000    -0.0861944  
C180     C      0.444660000000     0.943020000000     0.025060000000     0.0355899  
C181     C      0.465570000000     0.936200000000     0.008630000000    -0.0856692  
C182     C      0.452920000000     0.912660000000     0.986220000000     0.0727783  
C183     C      0.399450000000     0.902270000000     0.996000000000     0.0738224  
C184     C      0.457460000000     0.968600000000     0.548480000000     0.0357529  
C185     C      0.443340000000     0.988120000000     0.552820000000    -0.0862943  
C186     C      0.454530000000     0.011140000000     0.575530000000     0.0738809  
C187     C      0.494280000000     0.997130000000     0.589310000000     0.0729788  
C188     C      0.483460000000     0.973570000000     0.566930000000    -0.0859544  
C189     C      0.172430000000     0.663310000000     0.889300000000    -0.0861033  
C190     C      0.193710000000     0.675780000000     0.913590000000     0.035618   
C191     C      0.185790000000     0.656830000000     0.939290000000    -0.0859794  
C192     C      0.158150000000     0.625790000000     0.939810000000     0.0732285  
C193     C      0.145160000000     0.632060000000     0.890500000000     0.0736048  
C194     C      0.225050000000     0.707240000000     0.911560000000     0.0357304  
C195     C      0.243210000000     0.716010000000     0.885400000000    -0.086068   
C196     C      0.274190000000     0.743740000000     0.884730000000     0.0733467  
C197     C      0.269410000000     0.755120000000     0.934840000000     0.0736546  
C198     C      0.238230000000     0.727740000000     0.936220000000    -0.0862602  
C199     C      0.646350000000     0.195230000000     0.633800000000    -0.0862036  
C200     C      0.665930000000     0.203130000000     0.659250000000     0.0357208  
C201     C      0.654070000000     0.181920000000     0.683410000000    -0.0862722  
C202     C      0.622770000000     0.154650000000     0.682340000000     0.0736504  
C203     C      0.615250000000     0.167650000000     0.633440000000     0.0733363  
C204     C      0.697440000000     0.234440000000     0.661200000000     0.0357198  
C205     C      0.717600000000     0.247260000000     0.636490000000    -0.0862788  
C206     C      0.745050000000     0.278410000000     0.637790000000     0.0736526  
C207     C      0.734310000000     0.283890000000     0.687900000000     0.0733528  
C208     C      0.706580000000     0.252900000000     0.687330000000    -0.0861528  
C209     C      0.927000000000     0.415730000000     0.757100000000    -0.0857873  
C210     C      0.933130000000     0.442720000000     0.774500000000     0.035649   
C211     C      0.914690000000     0.457850000000     0.769060000000    -0.0863369  
C212     C      0.891600000000     0.446640000000     0.746330000000     0.0738979  
C213     C      0.903410000000     0.404930000000     0.734660000000     0.0728776  
C214     C      0.958780000000     0.455480000000     0.797950000000     0.0357677  
C215     C      0.964490000000     0.434440000000     0.815510000000    -0.0857876  
C216     C      0.988080000000     0.447120000000     0.837970000000     0.0725366  
C217     C      0.000690000000     0.500840000000     0.825980000000     0.074385   
C218     C      0.977630000000     0.489080000000     0.803230000000    -0.086769   
C219     C      0.927130000000     0.475270000000     0.565190000000    -0.0858354  
C220     C      0.932970000000     0.454230000000     0.547850000000     0.035705   
C221     C      0.914310000000     0.420650000000     0.553120000000    -0.0863837  
C222     C      0.891310000000     0.408930000000     0.575650000000     0.0739908  
C223     C      0.903580000000     0.462630000000     0.587400000000     0.0729091  
C224     C      0.958550000000     0.466960000000     0.024630000000     0.03574    
C225     C      0.964590000000     0.493920000000     0.007270000000    -0.08576    
C226     C      0.988150000000     0.504730000000     0.985080000000     0.0725949  
C227     C      0.000030000000     0.463060000000     0.996860000000     0.0743675  
C228     C      0.977010000000     0.451860000000     0.019370000000    -0.0866649  
C229     C      0.429430000000     0.665410000000     0.932340000000    -0.0862121  
C230     C      0.419500000000     0.677130000000     0.908350000000     0.0356514  
C231     C      0.407500000000     0.657550000000     0.882970000000    -0.0861569  
C232     C      0.404270000000     0.626620000000     0.882530000000     0.0733045  
C233     C      0.425630000000     0.634260000000     0.931200000000     0.0736115  
C234     C      0.419420000000     0.708440000000     0.910440000000     0.0357052  
C235     C      0.410670000000     0.717530000000     0.936820000000    -0.0860972  
C236     C      0.407160000000     0.745050000000     0.937590000000     0.073287   
C237     C      0.421900000000     0.755650000000     0.887170000000     0.0737594  
C238     C      0.425890000000     0.728440000000     0.885650000000    -0.0863398  
C239     C      0.245090000000     0.494190000000     0.939080000000    -0.0860142  
C240     C      0.225570000000     0.482570000000     0.913580000000     0.0356168  
C241     C      0.237510000000     0.473310000000     0.889420000000    -0.0862684  
C242     C      0.268790000000     0.477370000000     0.890550000000     0.0737075  
C243     C      0.276180000000     0.497740000000     0.939500000000     0.0732382  
C244     C      0.194080000000     0.482340000000     0.911580000000     0.0357109  
C245     C      0.173840000000     0.474900000000     0.936240000000    -0.0863059  
C246     C      0.146420000000     0.478580000000     0.934900000000     0.0737798  
C247     C      0.157310000000     0.494970000000     0.884830000000     0.0732488  
C248     C      0.185020000000     0.491730000000     0.885440000000    -0.0860608  
C249     C      0.653670000000     0.435950000000     0.636940000000    -0.0862731  
C250     C      0.666810000000     0.428510000000     0.661550000000     0.0356836  
C251     C      0.648630000000     0.418990000000     0.687700000000    -0.0860033  
C252     C      0.617670000000     0.415720000000     0.688410000000     0.0732212  
C253     C      0.622500000000     0.432120000000     0.638360000000     0.0737266  
C254     C      0.698140000000     0.428420000000     0.659460000000     0.035638   
C255     C      0.706080000000     0.417540000000     0.633680000000    -0.0860992  
C256     C      0.733700000000     0.414170000000     0.633110000000     0.0733264  
C257     C      0.746640000000     0.433130000000     0.682500000000     0.0736562  
C258     C      0.719390000000     0.437100000000     0.683770000000    -0.0861938  
C259     C      0.481160000000     0.252940000000     0.636320000000    -0.0860808  
C260     C      0.472310000000     0.235040000000     0.662670000000     0.0357196  
C261     C      0.465800000000     0.248540000000     0.687440000000    -0.0862835  
C262     C      0.469840000000     0.279770000000     0.685940000000     0.0737193  
C263     C      0.484730000000     0.284010000000     0.635550000000     0.0732771  
C264     C      0.472180000000     0.203620000000     0.664750000000     0.0356477  
C265     C      0.462260000000     0.181990000000     0.640750000000    -0.086238   
C266     C      0.466010000000     0.154610000000     0.641900000000     0.0736875  
C267     C      0.487280000000     0.168280000000     0.690600000000     0.0732152  
C268     C      0.484090000000     0.195990000000     0.690150000000    -0.086044   
C269     C      0.448150000000     0.490620000000     0.020450000000    -0.0862354  
C270     C      0.434120000000     0.456960000000     0.024790000000     0.0356585  
C271     C      0.408160000000     0.435850000000     0.006320000000    -0.085783   
C272     C      0.397300000000     0.448530000000     0.983930000000     0.0728163  
C273     C      0.436920000000     0.502390000000     0.997740000000     0.0738943  
C274     C      0.446980000000     0.444240000000     0.548210000000     0.0357303  
C275     C      0.480460000000     0.460180000000     0.554600000000    -0.0863367  
C276     C      0.492240000000     0.448910000000     0.577270000000     0.0738759  
C277     C      0.438830000000     0.405620000000     0.587030000000     0.0729566  
C278     C      0.426120000000     0.416450000000     0.564620000000    -0.0858437  
C279     C      0.467100000000     0.494740000000     0.816290000000    -0.085779   
C280     C      0.445880000000     0.468920000000     0.797790000000     0.035661   
C281     C      0.412210000000     0.455160000000     0.801930000000    -0.0862941  
C282     C      0.400540000000     0.466460000000     0.824510000000     0.073979   
C283     C      0.454520000000     0.505700000000     0.838540000000     0.0728143  
C284     C      0.458470000000     0.455910000000     0.774560000000     0.0357349  
C285     C      0.486430000000     0.476570000000     0.758280000000    -0.0858646  
C286     C      0.497130000000     0.463710000000     0.736050000000     0.0729584  
C287     C      0.453390000000     0.410520000000     0.745730000000     0.0738779  
C288     C      0.442240000000     0.422450000000     0.768230000000    -0.0863603  
H1       H      0.391990000000     0.948610000000     0.310980000000     0.0532453  
H2       H      0.373080000000     0.907430000000     0.349460000000     0.0300338  
H3       H      0.452130000000     0.890800000000     0.331960000000     0.0325032  
H4       H      0.470950000000     0.930600000000     0.292750000000     0.0537153  
H5       H      0.496950000000     0.987260000000     0.285640000000     0.0536822  
H6       H      0.517340000000     0.026900000000     0.246300000000     0.0328378  
H7       H      0.419940000000     0.999400000000     0.220460000000     0.0297078  
H8       H      0.398400000000     0.958300000000     0.259040000000     0.0532237  
H9       H      0.491640000000     0.949410000000     0.512570000000     0.0532055  
H10      H      0.469850000000     0.908310000000     0.473760000000     0.0300868  
H11      H      0.373410000000     0.889360000000     0.491680000000     0.0325926  
H12      H      0.393930000000     0.929080000000     0.531190000000     0.0536766  
H13      H      0.423770000000     0.985810000000     0.038710000000     0.0536819  
H14      H      0.442700000000     0.025500000000     0.078240000000     0.032796   
H15      H      0.514170000000     0.000030000000     0.103370000000     0.0297524  
H16      H      0.494960000000     0.958920000000     0.064600000000     0.0532845  
H17      H      0.201560000000     0.665200000000     0.458560000000     0.0532607  
H18      H      0.153440000000     0.611540000000     0.459790000000     0.0301412  
H19      H      0.129800000000     0.622950000000     0.370960000000     0.0322871  
H20      H      0.177070000000     0.677330000000     0.369210000000     0.0534031  
H21      H      0.234280000000     0.700850000000     0.365820000000     0.0533251  
H22      H      0.287830000000     0.749130000000     0.364340000000     0.0302324  
H23      H      0.279080000000     0.769870000000     0.454620000000     0.0321196  
H24      H      0.224830000000     0.722430000000     0.456690000000     0.0534622  
H25      H      0.668590000000     0.186610000000     0.203290000000     0.0535351  
H26      H      0.614140000000     0.139320000000     0.201780000000     0.0324137  
H27      H      0.600480000000     0.162950000000     0.113690000000     0.0299822  
H28      H      0.654300000000     0.210970000000     0.114660000000     0.0533883  
H29      H      0.711940000000     0.233600000000     0.116030000000     0.0534897  
H30      H      0.759520000000     0.287810000000     0.117960000000     0.032273   
H31      H      0.739980000000     0.297800000000     0.208250000000     0.0300708  
H32      H      0.691680000000     0.244190000000     0.206950000000     0.0533612  
H33      H      0.917890000000     0.478250000000     0.282340000000     0.0536674  
H34      H      0.878100000000     0.459270000000     0.242750000000     0.0327049  
H35      H      0.899610000000     0.384240000000     0.221430000000     0.0299209  
H36      H      0.940800000000     0.403400000000     0.260300000000     0.0531581  
H37      H      0.950380000000     0.408290000000     0.312430000000     0.0531838  
H38      H      0.991550000000     0.430110000000     0.351340000000     0.0299086  
H39      H      0.014500000000     0.526990000000     0.329440000000     0.0327312  
H40      H      0.974740000000     0.506380000000     0.289810000000     0.0537173  
H41      H      0.917280000000     0.403320000000     0.039860000000     0.0536215  
H42      H      0.877640000000     0.382800000000     0.079100000000     0.0326236  
H43      H      0.899990000000     0.479650000000     0.100590000000     0.0298097  
H44      H      0.941100000000     0.501410000000     0.062140000000     0.0531482  
H45      H      0.950770000000     0.506220000000     0.510310000000     0.053156   
H46      H      0.991900000000     0.525400000000     0.471890000000     0.0297825  
H47      H      0.013550000000     0.450470000000     0.493430000000     0.03258    
H48      H      0.973890000000     0.431500000000     0.032640000000     0.0536627  
H49      H      0.399250000000     0.665350000000     0.363960000000     0.0532782  
H50      H      0.393940000000     0.611840000000     0.362840000000     0.0299939  
H51      H      0.432770000000     0.625740000000     0.450520000000     0.0322845  
H52      H      0.439550000000     0.679940000000     0.452140000000     0.0534975  
H53      H      0.405140000000     0.702750000000     0.456500000000     0.0533654  
H54      H      0.399400000000     0.750690000000     0.458160000000     0.0302163  
H55      H      0.426300000000     0.770000000000     0.367290000000     0.0321151  
H56      H      0.433440000000     0.722850000000     0.364990000000     0.0534471  
H57      H      0.223040000000     0.463530000000     0.369510000000     0.0535185  
H58      H      0.277470000000     0.470750000000     0.371110000000     0.0324168  
H59      H      0.290890000000     0.507760000000     0.459300000000     0.0299911  
H60      H      0.237080000000     0.501910000000     0.458230000000     0.0533309  
H61      H      0.179440000000     0.466840000000     0.456700000000     0.0535529  
H62      H      0.131880000000     0.473420000000     0.454700000000     0.0322532  
H63      H      0.151710000000     0.503260000000     0.364480000000     0.0300624  
H64      H      0.199980000000     0.498000000000     0.365860000000     0.0533851  
H65      H      0.657540000000     0.412670000000     0.207230000000     0.0532745  
H66      H      0.604020000000     0.407370000000     0.208780000000     0.0302282  
H67      H      0.612850000000     0.437280000000     0.118610000000     0.0320961  
H68      H      0.667080000000     0.444140000000     0.116480000000     0.0534187  
H69      H      0.690340000000     0.410260000000     0.114400000000     0.0532872  
H70      H      0.738420000000     0.404740000000     0.113060000000     0.0301104  
H71      H      0.761960000000     0.439260000000     0.202050000000     0.032172   
H72      H      0.714740000000     0.446360000000     0.203910000000     0.0534386  
H73      H      0.458180000000     0.235340000000     0.208080000000     0.0534484  
H74      H      0.465400000000     0.289690000000     0.205810000000     0.0321459  
H75      H      0.492560000000     0.297450000000     0.115010000000     0.030211   
H76      H      0.486730000000     0.243730000000     0.116650000000     0.0533684  
H77      H      0.452210000000     0.186440000000     0.120930000000     0.053467   
H78      H      0.458890000000     0.138970000000     0.122570000000     0.0323085  
H79      H      0.497550000000     0.163800000000     0.210310000000     0.0299875  
H80      H      0.492330000000     0.212050000000     0.209180000000     0.0532882  
H81      H      0.396730000000     0.409680000000     0.508640000000     0.0532595  
H82      H      0.377450000000     0.431470000000     0.469850000000     0.0297685  
H83      H      0.448680000000     0.528590000000     0.495040000000     0.0327674  
H84      H      0.467690000000     0.507940000000     0.534580000000     0.0536527  
H85      H      0.497670000000     0.481250000000     0.042090000000     0.0536881  
H86      H      0.518280000000     0.462150000000     0.081600000000     0.0325838  
H87      H      0.421930000000     0.384270000000     0.099470000000     0.0300557  
H88      H      0.400050000000     0.403480000000     0.060680000000     0.053237   
H89      H      0.394800000000     0.435750000000     0.287750000000     0.0536647  
H90      H      0.374320000000     0.454890000000     0.327070000000     0.0328277  
H91      H      0.471650000000     0.525420000000     0.352660000000     0.0297186  
H92      H      0.493290000000     0.505980000000     0.314110000000     0.0531905  
H93      H      0.499630000000     0.502610000000     0.262190000000     0.0532006  
H94      H      0.518610000000     0.480460000000     0.223700000000     0.0300013  
H95      H      0.439920000000     0.384510000000     0.241440000000     0.0325399  
H96      H      0.421040000000     0.405380000000     0.280650000000     0.0537224  
H97      H      0.391990000000     0.948610000000     0.810980000000     0.0532471  
H98      H      0.373080000000     0.907430000000     0.849460000000     0.0300372  
H99      H      0.452130000000     0.890800000000     0.831960000000     0.0325001  
H100     H      0.470950000000     0.930600000000     0.792750000000     0.0537171  
H101     H      0.496950000000     0.987260000000     0.785640000000     0.0536728  
H102     H      0.517350000000     0.026900000000     0.746300000000     0.0328396  
H103     H      0.419940000000     0.999400000000     0.720460000000     0.0297094  
H104     H      0.398400000000     0.958310000000     0.759040000000     0.0532171  
H105     H      0.491640000000     0.949410000000     0.012570000000     0.053188   
H106     H      0.469850000000     0.908310000000     0.973760000000     0.0300894  
H107     H      0.373410000000     0.889360000000     0.991680000000     0.032594   
H108     H      0.393930000000     0.929080000000     0.031190000000     0.0536586  
H109     H      0.423760000000     0.985810000000     0.538710000000     0.0536744  
H110     H      0.442700000000     0.025490000000     0.578240000000     0.0327933  
H111     H      0.514170000000     0.000030000000     0.603370000000     0.0297582  
H112     H      0.494960000000     0.958920000000     0.564600000000     0.0532794  
H113     H      0.201560000000     0.665200000000     0.958560000000     0.0532425  
H114     H      0.153440000000     0.611540000000     0.959790000000     0.0301529  
H115     H      0.129800000000     0.622950000000     0.870960000000     0.0322837  
H116     H      0.177070000000     0.677330000000     0.869210000000     0.0534108  
H117     H      0.234280000000     0.700860000000     0.865820000000     0.0533057  
H118     H      0.287830000000     0.749130000000     0.864340000000     0.0302435  
H119     H      0.279080000000     0.769870000000     0.954620000000     0.0321261  
H120     H      0.224830000000     0.722430000000     0.956690000000     0.0534496  
H121     H      0.668590000000     0.186610000000     0.703290000000     0.0535302  
H122     H      0.614140000000     0.139320000000     0.701780000000     0.0324108  
H123     H      0.600480000000     0.162950000000     0.613690000000     0.0299797  
H124     H      0.654300000000     0.210970000000     0.614660000000     0.0533853  
H125     H      0.711940000000     0.233600000000     0.616030000000     0.053481   
H126     H      0.759520000000     0.287810000000     0.617960000000     0.032267   
H127     H      0.739980000000     0.297800000000     0.708250000000     0.0300652  
H128     H      0.691680000000     0.244190000000     0.706940000000     0.0533985  
H129     H      0.917900000000     0.478250000000     0.782340000000     0.0536618  
H130     H      0.878100000000     0.459270000000     0.742750000000     0.0327098  
H131     H      0.899600000000     0.384240000000     0.721430000000     0.0299247  
H132     H      0.940800000000     0.403400000000     0.760300000000     0.0531569  
H133     H      0.950380000000     0.408290000000     0.812430000000     0.053179   
H134     H      0.991550000000     0.430110000000     0.851340000000     0.029905   
H135     H      0.014500000000     0.526990000000     0.829440000000     0.03273    
H136     H      0.974740000000     0.506380000000     0.789810000000     0.0537136  
H137     H      0.917280000000     0.403330000000     0.539860000000     0.0536583  
H138     H      0.877650000000     0.382800000000     0.579100000000     0.032605   
H139     H      0.899990000000     0.479650000000     0.600590000000     0.0298119  
H140     H      0.941100000000     0.501410000000     0.562140000000     0.0531416  
H141     H      0.950770000000     0.506220000000     0.010310000000     0.0531485  
H142     H      0.991900000000     0.525410000000     0.971890000000     0.0298     
H143     H      0.013550000000     0.450460000000     0.993430000000     0.032595   
H144     H      0.973890000000     0.431500000000     0.532640000000     0.053672   
H145     H      0.399250000000     0.665350000000     0.863960000000     0.0533308  
H146     H      0.393940000000     0.611840000000     0.862840000000     0.0299845  
H147     H      0.432770000000     0.625740000000     0.950520000000     0.032299   
H148     H      0.439540000000     0.679940000000     0.952140000000     0.0534889  
H149     H      0.405140000000     0.702750000000     0.956500000000     0.0533606  
H150     H      0.399400000000     0.750690000000     0.958160000000     0.0302073  
H151     H      0.426300000000     0.770000000000     0.867290000000     0.0320954  
H152     H      0.433440000000     0.722850000000     0.864990000000     0.0534604  
H153     H      0.223040000000     0.463530000000     0.869510000000     0.0535607  
H154     H      0.277470000000     0.470750000000     0.871110000000     0.032392   
H155     H      0.290890000000     0.507760000000     0.959300000000     0.0299864  
H156     H      0.237080000000     0.501910000000     0.958230000000     0.0533041  
H157     H      0.179440000000     0.466840000000     0.956700000000     0.0534897  
H158     H      0.131880000000     0.473420000000     0.954700000000     0.0322472  
H159     H      0.151710000000     0.503260000000     0.864480000000     0.0300611  
H160     H      0.199980000000     0.498000000000     0.865860000000     0.0533725  
H161     H      0.657540000000     0.412670000000     0.707230000000     0.053265   
H162     H      0.604020000000     0.407370000000     0.708780000000     0.030229   
H163     H      0.612850000000     0.437280000000     0.618610000000     0.0320916  
H164     H      0.667080000000     0.444140000000     0.616480000000     0.0534297  
H165     H      0.690340000000     0.410260000000     0.614400000000     0.0532737  
H166     H      0.738420000000     0.404740000000     0.613060000000     0.0301141  
H167     H      0.761960000000     0.439260000000     0.702050000000     0.0321753  
H168     H      0.714740000000     0.446360000000     0.703910000000     0.0534248  
H169     H      0.458180000000     0.235340000000     0.708080000000     0.0534464  
H170     H      0.465400000000     0.289690000000     0.705810000000     0.0321424  
H171     H      0.492560000000     0.297450000000     0.615000000000     0.0301968  
H172     H      0.486730000000     0.243730000000     0.616650000000     0.0533715  
H173     H      0.452210000000     0.186440000000     0.620930000000     0.0535112  
H174     H      0.458890000000     0.138970000000     0.622570000000     0.0322781  
H175     H      0.497550000000     0.163800000000     0.710310000000     0.0299993  
H176     H      0.492330000000     0.212050000000     0.709180000000     0.0532568  
H177     H      0.396730000000     0.409680000000     0.008640000000     0.0532467  
H178     H      0.377450000000     0.431470000000     0.969850000000     0.0297761  
H179     H      0.448680000000     0.528590000000     0.995040000000     0.0327755  
H180     H      0.467690000000     0.507940000000     0.034580000000     0.0536651  
H181     H      0.497670000000     0.481250000000     0.542090000000     0.0536803  
H182     H      0.518290000000     0.462150000000     0.581590000000     0.0325743  
H183     H      0.421930000000     0.384270000000     0.599470000000     0.0300495  
H184     H      0.400050000000     0.403480000000     0.560680000000     0.0532287  
H185     H      0.394800000000     0.435750000000     0.787750000000     0.053655   
H186     H      0.374320000000     0.454890000000     0.827070000000     0.0328219  
H187     H      0.471650000000     0.525420000000     0.852660000000     0.0297117  
H188     H      0.493290000000     0.505980000000     0.814110000000     0.0531823  
H189     H      0.499630000000     0.502610000000     0.762190000000     0.053207   
H190     H      0.518610000000     0.480460000000     0.723700000000     0.0299797  
H191     H      0.439920000000     0.384510000000     0.741440000000     0.0325464  
H192     H      0.421040000000     0.405380000000     0.780650000000     0.0537157  
In1      In     0.508140000000     0.393990000000     0.161820000000     2.41339    
In2      In     0.384620000000     0.518560000000     0.411030000000     2.41147    
In3      In     0.821600000000     0.393080000000     0.160600000000     2.41311    
In4      In     0.070090000000     0.516850000000     0.412040000000     2.41286    
In5      In     0.506880000000     0.079880000000     0.162110000000     2.41185    
In6      In     0.383750000000     0.831600000000     0.411390000000     2.41337    
In7      In     0.508140000000     0.393990000000     0.661820000000     2.4134     
In8      In     0.384620000000     0.518560000000     0.911030000000     2.41129    
In9      In     0.821600000000     0.393080000000     0.660600000000     2.41332    
In10     In     0.070090000000     0.516850000000     0.912040000000     2.4128     
In11     In     0.506880000000     0.079880000000     0.662110000000     2.4116     
In12     In     0.383750000000     0.831600000000     0.911390000000     2.41338    
N1       N      0.411430000000     0.896460000000     0.343630000000    -0.194168   
N2       N      0.470100000000     0.015770000000     0.230430000000    -0.194225   
N3       N      0.420180000000     0.896190000000     0.479780000000    -0.193935   
N4       N      0.479600000000     0.015400000000     0.093750000000    -0.194243   
N5       N      0.138660000000     0.613170000000     0.415270000000    -0.194247   
N6       N      0.287520000000     0.762480000000     0.409530000000    -0.19422    
N7       N      0.603240000000     0.148170000000     0.157860000000    -0.194311   
N8       N      0.752730000000     0.296870000000     0.163050000000    -0.194257   
N9       N      0.886210000000     0.420580000000     0.229140000000    -0.194052   
N10      N      0.005660000000     0.480020000000     0.343350000000    -0.193906   
N11      N      0.886180000000     0.429770000000     0.092770000000    -0.194353   
N12      N      0.005370000000     0.489110000000     0.479740000000    -0.194221   
N13      N      0.412270000000     0.614730000000     0.406820000000    -0.194392   
N14      N      0.411730000000     0.763300000000     0.412700000000    -0.194172   
N15      N      0.288250000000     0.490360000000     0.415090000000    -0.194237   
N16      N      0.138820000000     0.489430000000     0.409650000000    -0.194269   
N17      N      0.604360000000     0.421240000000     0.163640000000    -0.194259   
N18      N      0.753150000000     0.420900000000     0.157650000000    -0.19427    
N19      N      0.480100000000     0.297650000000     0.160430000000    -0.194191   
N20      N      0.479300000000     0.148400000000     0.166310000000    -0.194375   
N21      N      0.411910000000     0.481510000000     0.479500000000    -0.194204   
N22      N      0.471560000000     0.422010000000     0.093470000000    -0.19407    
N23      N      0.421520000000     0.491310000000     0.342810000000    -0.19421    
N24      N      0.480450000000     0.431010000000     0.229640000000    -0.194248   
N25      N      0.411430000000     0.896460000000     0.843630000000    -0.194165   
N26      N      0.470100000000     0.015770000000     0.730430000000    -0.194222   
N27      N      0.420180000000     0.896190000000     0.979780000000    -0.193974   
N28      N      0.479600000000     0.015400000000     0.593750000000    -0.194167   
N29      N      0.138660000000     0.613170000000     0.915270000000    -0.194229   
N30      N      0.287520000000     0.762490000000     0.909530000000    -0.1942     
N31      N      0.603240000000     0.148170000000     0.657860000000    -0.194311   
N32      N      0.752730000000     0.296870000000     0.663050000000    -0.194247   
N33      N      0.886210000000     0.420580000000     0.729140000000    -0.194048   
N34      N      0.005660000000     0.480020000000     0.843350000000    -0.193906   
N35      N      0.886180000000     0.429770000000     0.592770000000    -0.194333   
N36      N      0.005370000000     0.489110000000     0.979740000000    -0.194134   
N37      N      0.412270000000     0.614730000000     0.906810000000    -0.194393   
N38      N      0.411730000000     0.763300000000     0.912700000000    -0.194213   
N39      N      0.288250000000     0.490370000000     0.915080000000    -0.194233   
N40      N      0.138820000000     0.489430000000     0.909650000000    -0.194241   
N41      N      0.604370000000     0.421240000000     0.663640000000    -0.194177   
N42      N      0.753150000000     0.420900000000     0.657650000000    -0.194264   
N43      N      0.480110000000     0.297650000000     0.660430000000    -0.194203   
N44      N      0.479300000000     0.148400000000     0.666300000000    -0.194414   
N45      N      0.411910000000     0.481510000000     0.979500000000    -0.194165   
N46      N      0.471560000000     0.422010000000     0.593470000000    -0.194122   
N47      N      0.421520000000     0.491310000000     0.842810000000    -0.194257   
N48      N      0.480450000000     0.431020000000     0.729640000000    -0.194208   
O1       O      0.466190000000     0.386880000000     0.131330000000    -0.502035   
O2       O      0.513250000000     0.427680000000     0.123960000000    -0.498888   
O3       O      0.474380000000     0.389240000000     0.199340000000    -0.499374   
O4       O      0.486580000000     0.343990000000     0.183330000000    -0.49451    
O5       O      0.558270000000     0.415650000000     0.140620000000    -0.49424    
O6       O      0.497670000000     0.347300000000     0.137650000000    -0.503847   
O7       O      0.515620000000     0.436030000000     0.192110000000    -0.502611   
O8       O      0.554610000000     0.403600000000     0.186130000000    -0.504049   
O9       O      0.378560000000     0.475970000000     0.439730000000    -0.503896   
O10      O      0.416370000000     0.523700000000     0.450800000000    -0.49705    
O11      O      0.427210000000     0.524570000000     0.382500000000    -0.503977   
O12      O      0.333150000000     0.494190000000     0.391690000000    -0.491976   
O13      O      0.409080000000     0.570010000000     0.430210000000    -0.492335   
O14      O      0.339410000000     0.510640000000     0.436120000000    -0.505259   
O15      O      0.379380000000     0.486970000000     0.371320000000    -0.497481   
O16      O      0.392030000000     0.563650000000     0.385920000000    -0.505808   
O17      O      0.857170000000     0.386300000000     0.190300000000    -0.502641   
O18      O      0.849430000000     0.425830000000     0.199430000000    -0.497946   
O19      O      0.849370000000     0.387920000000     0.122210000000    -0.4991     
O20      O      0.793070000000     0.342530000000     0.139840000000    -0.493789   
O21      O      0.794070000000     0.416240000000     0.180900000000    -0.49313    
O22      O      0.784990000000     0.347060000000     0.185220000000    -0.504629   
O23      O      0.857280000000     0.435290000000     0.131190000000    -0.503697   
O24      O      0.784430000000     0.401840000000     0.135890000000    -0.504687   
O25      O      0.042710000000     0.522000000000     0.372980000000    -0.49766    
O26      O      0.034270000000     0.474520000000     0.382400000000    -0.502734   
O27      O      0.042070000000     0.483870000000     0.450370000000    -0.498786   
O28      O      0.098460000000     0.494690000000     0.432800000000    -0.493755   
O29      O      0.097650000000     0.567680000000     0.391930000000    -0.492793   
O30      O      0.106680000000     0.507450000000     0.387450000000    -0.504789   
O31      O      0.034490000000     0.523530000000     0.441360000000    -0.503664   
O32      O      0.107370000000     0.562690000000     0.436860000000    -0.504657   
O33      O      0.512980000000     0.043370000000     0.133450000000    -0.504102   
O34      O      0.475070000000     0.053090000000     0.122420000000    -0.497434   
O35      O      0.512200000000     0.053730000000     0.201950000000    -0.49738    
O36      O      0.558400000000     0.107020000000     0.181330000000    -0.492107   
O37      O      0.482460000000     0.106870000000     0.142920000000    -0.492642   
O38      O      0.552020000000     0.117250000000     0.136950000000    -0.505314   
O39      O      0.464320000000     0.043160000000     0.190630000000    -0.503964   
O40      O      0.499470000000     0.117540000000     0.187220000000    -0.506012   
O41      O      0.425660000000     0.866540000000     0.441890000000    -0.501981   
O42      O      0.378540000000     0.860060000000     0.449280000000    -0.498686   
O43      O      0.417580000000     0.860820000000     0.373960000000    -0.49951    
O44      O      0.405230000000     0.803160000000     0.389820000000    -0.494649   
O45      O      0.333640000000     0.802980000000     0.432600000000    -0.494234   
O46      O      0.394280000000     0.795420000000     0.435530000000    -0.503889   
O47      O      0.376200000000     0.866100000000     0.381080000000    -0.502324   
O48      O      0.337260000000     0.794730000000     0.387050000000    -0.503717   
O49      O      0.466190000000     0.386880000000     0.631330000000    -0.502048   
O50      O      0.513250000000     0.427680000000     0.623960000000    -0.498782   
O51      O      0.474380000000     0.389240000000     0.699340000000    -0.499357   
O52      O      0.486580000000     0.343990000000     0.683330000000    -0.494464   
O53      O      0.558270000000     0.415650000000     0.640620000000    -0.494166   
O54      O      0.497670000000     0.347300000000     0.637650000000    -0.503844   
O55      O      0.515620000000     0.436030000000     0.692110000000    -0.502587   
O56      O      0.554610000000     0.403600000000     0.686130000000    -0.504021   
O57      O      0.378560000000     0.475970000000     0.939730000000    -0.503882   
O58      O      0.416370000000     0.523700000000     0.950800000000    -0.497032   
O59      O      0.427210000000     0.524570000000     0.882500000000    -0.503996   
O60      O      0.333150000000     0.494190000000     0.891690000000    -0.491962   
O61      O      0.409080000000     0.570010000000     0.930210000000    -0.492364   
O62      O      0.339410000000     0.510640000000     0.936120000000    -0.505242   
O63      O      0.379380000000     0.486970000000     0.871320000000    -0.497357   
O64      O      0.392030000000     0.563660000000     0.885920000000    -0.505723   
O65      O      0.857170000000     0.386300000000     0.690300000000    -0.502679   
O66      O      0.849430000000     0.425830000000     0.699430000000    -0.49796    
O67      O      0.849370000000     0.387920000000     0.622210000000    -0.499064   
O68      O      0.793070000000     0.342540000000     0.639840000000    -0.493905   
O69      O      0.794070000000     0.416240000000     0.680900000000    -0.493141   
O70      O      0.784980000000     0.347060000000     0.685220000000    -0.504572   
O71      O      0.857280000000     0.435290000000     0.631200000000    -0.503705   
O72      O      0.784430000000     0.401840000000     0.635890000000    -0.504685   
O73      O      0.042710000000     0.522000000000     0.872980000000    -0.497659   
O74      O      0.034270000000     0.474520000000     0.882400000000    -0.502738   
O75      O      0.042070000000     0.483870000000     0.950370000000    -0.49871    
O76      O      0.098460000000     0.494690000000     0.932800000000    -0.49371    
O77      O      0.097650000000     0.567680000000     0.891930000000    -0.492776   
O78      O      0.106680000000     0.507460000000     0.887450000000    -0.504771   
O79      O      0.034490000000     0.523540000000     0.941360000000    -0.503392   
O80      O      0.107370000000     0.562690000000     0.936860000000    -0.504651   
O81      O      0.512980000000     0.043370000000     0.633450000000    -0.503996   
O82      O      0.475060000000     0.053090000000     0.622420000000    -0.497138   
O83      O      0.512200000000     0.053730000000     0.701950000000    -0.497363   
O84      O      0.558400000000     0.107020000000     0.681330000000    -0.492099   
O85      O      0.482460000000     0.106870000000     0.642920000000    -0.492675   
O86      O      0.552020000000     0.117250000000     0.636950000000    -0.505304   
O87      O      0.464320000000     0.043160000000     0.690630000000    -0.50394    
O88      O      0.499460000000     0.117540000000     0.687220000000    -0.506021   
O89      O      0.425660000000     0.866540000000     0.941890000000    -0.501913   
O90      O      0.378540000000     0.860060000000     0.949280000000    -0.498649   
O91      O      0.417580000000     0.860820000000     0.873960000000    -0.499513   
O92      O      0.405230000000     0.803160000000     0.889820000000    -0.494658   
O93      O      0.333640000000     0.802980000000     0.932600000000    -0.494249   
O94      O      0.394280000000     0.795420000000     0.935530000000    -0.503902   
O95      O      0.376200000000     0.866100000000     0.881080000000    -0.502324   
O96      O      0.337260000000     0.794730000000     0.887050000000    -0.503729   


