data_structure

_audit_creation_method RASPA-1.0
_audit_creation_date 2023-5-23
_audit_author_name 'Poobodin Mano'

_cell_length_a    42.8416
_cell_length_b    45.8139
_cell_length_c    42.854
_cell_angle_alpha 89.9982
_cell_angle_beta  89.9989
_cell_angle_gamma 119.87
_cell_volume      72937.8

_symmetry_cell_setting          triclinic
_symmetry_space_group_name_Hall 'P 1'
_symmetry_space_group_name_H-M  'P 1'
_symmetry_Int_Tables_number     1

_symmetry_equiv_pos_as_xyz 'x,y,z'

loop_
_atom_site_label
_atom_site_type_symbol
_atom_site_fract_x
_atom_site_fract_y
_atom_site_fract_z
_atom_site_charge
C1       C      0.395930000000     0.575460000000     0.291380000000     0.408834   
C2       C      0.419470000000     0.503890000000     0.218760000000     0.409164   
C3       C      0.396040000000     0.487900000000     0.310740000000     0.409434   
C4       C      0.327860000000     0.510550000000     0.228500000000     0.408828   
C5       C      0.138040000000     0.575360000000     0.042060000000     0.409769   
C6       C      0.034120000000     0.503770000000     0.109630000000     0.409429   
C7       C      0.049000000000     0.486950000000     0.518750000000     0.409663   
C8       C      0.133730000000     0.509100000000     0.106730000000     0.410161   
C9       C      0.331270000000     0.774140000000     0.439100000000     0.410579   
C10      C      0.396320000000     0.860270000000     0.356960000000     0.410059   
C11      C      0.421480000000     0.867510000000     0.451150000000     0.409361   
C12      C      0.398210000000     0.773330000000     0.379660000000     0.409077   
C13      C      0.763950000000     0.329950000000     0.301200000000     0.416246   
C14      C      0.870840000000     0.397090000000     0.354620000000     0.408241   
C15      C      0.847170000000     0.424600000000     0.267240000000     0.411714   
C16      C      0.780800000000     0.416360000000     0.355460000000     0.414128   
C17      C      0.521130000000     0.332740000000     0.532460000000     0.410905   
C18      C      0.483220000000     0.401280000000     0.475780000000     0.407377   
C19      C      0.523220000000     0.419730000000     0.064870000000     0.410345   
C20      C      0.588960000000     0.414630000000     0.475900000000     0.411184   
C21      C      0.577100000000     0.132150000000     0.192270000000     0.408146   
C22      C      0.512410000000     0.046640000000     0.108070000000     0.408062   
C23      C      0.488340000000     0.039260000000     0.199940000000     0.407891   
C24      C      0.514260000000     0.134760000000     0.127140000000     0.407107   
C25      C      0.545060000000     0.274990000000     0.069790000000    -0.0872979  
C26      C      0.512070000000     0.244890000000     0.070170000000     0.0358319  
C27      C      0.481770000000     0.244770000000     0.057680000000    -0.0859474  
C28      C      0.485160000000     0.274350000000     0.044750000000     0.0731726  
C29      C      0.547410000000     0.303930000000     0.057000000000     0.0743314  
C30      C      0.510140000000     0.214020000000     0.083260000000     0.035754   
C31      C      0.537130000000     0.206380000000     0.076100000000    -0.0873992  
C32      C      0.537470000000     0.179350000000     0.090560000000     0.0748057  
C33      C      0.484150000000     0.166080000000     0.118360000000     0.0731116  
C34      C      0.482930000000     0.193080000000     0.104150000000    -0.0856784  
C35      C      0.682970000000     0.445090000000     0.454810000000    -0.0865143  
C36      C      0.679320000000     0.433880000000     0.423890000000     0.0356843  
C37      C      0.645200000000     0.418950000000     0.410060000000    -0.0866001  
C38      C      0.615440000000     0.413820000000     0.427560000000     0.0733909  
C39      C      0.652600000000     0.439930000000     0.471550000000     0.0735359  
C40      C      0.709910000000     0.434560000000     0.406950000000     0.0357136  
C41      C      0.715830000000     0.443100000000     0.375250000000    -0.0867842  
C42      C      0.741190000000     0.438580000000     0.358630000000     0.0739448  
C43      C      0.755990000000     0.418760000000     0.404260000000     0.0731736  
C44      C      0.731190000000     0.423320000000     0.421650000000    -0.0863789  
C45      C      0.678440000000     0.265620000000     0.268570000000    -0.0871846  
C46      C      0.686150000000     0.240260000000     0.260480000000     0.0360735  
C47      C      0.720460000000     0.245180000000     0.267310000000    -0.086203   
C48      C      0.746110000000     0.275070000000     0.281720000000     0.073987   
C49      C      0.704590000000     0.295030000000     0.282770000000     0.0748689  
C50      C      0.658380000000     0.209370000000     0.244470000000     0.0357717  
C51      C      0.622230000000     0.194810000000     0.253370000000    -0.087209   
C52      C      0.595640000000     0.168440000000     0.236050000000     0.0748169  
C53      C      0.639610000000     0.168790000000     0.202210000000     0.0734187  
C54      C      0.667070000000     0.195500000000     0.219010000000    -0.085615   
C55      C      0.477970000000     0.978130000000     0.259200000000    -0.0871864  
C56      C      0.440840000000     0.961290000000     0.264980000000     0.0357787  
C57      C      0.419970000000     0.972800000000     0.249720000000    -0.0850202  
C58      C      0.436280000000     0.999670000000     0.228460000000     0.07236    
C59      C      0.493050000000     0.004100000000     0.237570000000     0.0755281  
C60      C      0.424940000000     0.931880000000     0.286630000000     0.0357051  
C61      C      0.439850000000     0.910750000000     0.288130000000    -0.0871489  
C62      C      0.429130000000     0.886440000000     0.311320000000     0.0753222  
C63      C      0.385730000000     0.900030000000     0.329680000000     0.0721198  
C64      C      0.396640000000     0.925530000000     0.307120000000    -0.085069   
C65      C      0.430520000000     0.925160000000     0.513480000000    -0.0873008  
C66      C      0.467930000000     0.944480000000     0.517120000000     0.0357824  
C67      C      0.489660000000     0.935540000000     0.499670000000    -0.0850634  
C68      C      0.473770000000     0.908820000000     0.478240000000     0.0720255  
C69      C      0.415790000000     0.899420000000     0.491600000000     0.0754007  
C70      C      0.483230000000     0.974020000000     0.038600000000     0.0361764  
C71      C      0.465820000000     0.992900000000     0.041740000000    -0.0875339  
C72      C      0.476640000000     0.017520000000     0.064610000000     0.0755799  
C73      C      0.524450000000     0.008500000000     0.079510000000     0.0726546  
C74      C      0.513650000000     0.982790000000     0.057190000000    -0.0853897  
C75      C      0.993150000000     0.474080000000     0.450290000000    -0.0884804  
C76      C      0.980410000000     0.440140000000     0.443530000000     0.036477   
C77      C      0.991970000000     0.422110000000     0.462030000000    -0.087244   
C78      C      0.015960000000     0.438360000000     0.486730000000     0.0737554  
C79      C      0.016350000000     0.489210000000     0.475310000000     0.0755859  
C80      C      0.954110000000     0.424130000000     0.417880000000     0.0353197  
C81      C      0.920810000000     0.395110000000     0.423060000000    -0.0859036  
C82      C      0.893500000000     0.384930000000     0.400660000000     0.0730583  
C83      C      0.932590000000     0.429730000000     0.367400000000     0.0734771  
C84      C      0.960300000000     0.440570000000     0.389140000000    -0.0873109  
C85      C      0.921360000000     0.485790000000     0.219210000000    -0.0862069  
C86      C      0.917790000000     0.466150000000     0.192920000000     0.0361955  
C87      C      0.886700000000     0.434540000000     0.190120000000    -0.0871798  
C88      C      0.862100000000     0.421810000000     0.214590000000     0.0746166  
C89      C      0.895780000000     0.472410000000     0.243130000000     0.0749182  
C90      C      0.947770000000     0.476640000000     0.170220000000     0.0354675  
C91      C      0.969200000000     0.510260000000     0.160820000000    -0.0853882  
C92      C      0.998140000000     0.519120000000     0.140430000000     0.0717479  
C93      C      0.985060000000     0.462400000000     0.138590000000     0.0736795  
C94      C      0.956210000000     0.452740000000     0.158850000000    -0.0866903  
C95      C      0.217850000000     0.632720000000     0.497320000000    -0.0876066  
C96      C      0.216750000000     0.662680000000     0.498930000000     0.0359766  
C97      C      0.188180000000     0.662750000000     0.514700000000    -0.0864428  
C98      C      0.161950000000     0.633260000000     0.529210000000     0.0739861  
C99      C      0.190970000000     0.603710000000     0.511540000000     0.0746474  
C100     C      0.246250000000     0.693730000000     0.484970000000     0.0360895  
C101     C      0.281940000000     0.703490000000     0.492180000000    -0.0878976  
C102     C      0.309910000000     0.731140000000     0.477270000000     0.0752888  
C103     C      0.268200000000     0.740190000000     0.448450000000     0.0740274  
C104     C      0.239380000000     0.712790000000     0.463370000000    -0.0863423  
C105     C      0.490840000000     0.505120000000     0.170540000000    -0.0856628  
C106     C      0.472600000000     0.472870000000     0.157210000000     0.0359152  
C107     C      0.435940000000     0.452300000000     0.163900000000    -0.0870552  
C108     C      0.418730000000     0.463380000000     0.184220000000     0.0747123  
C109     C      0.472520000000     0.515630000000     0.190630000000     0.0731782  
C110     C      0.490850000000     0.460350000000     0.135960000000     0.0360356  
C111     C      0.516430000000     0.481520000000     0.113990000000    -0.0859401  
C112     C      0.529060000000     0.467830000000     0.091410000000     0.0746061  
C113     C      0.493260000000     0.413310000000     0.112850000000     0.0747734  
C114     C      0.480740000000     0.426160000000     0.136040000000    -0.0870677  
C115     C      0.446100000000     0.474810000000     0.372630000000    -0.0877069  
C116     C      0.420600000000     0.443400000000     0.384430000000     0.0359637  
C117     C      0.386360000000     0.426620000000     0.370740000000    -0.0860659  
C118     C      0.378160000000     0.441920000000     0.346140000000     0.0726701  
C119     C      0.437230000000     0.489020000000     0.347990000000     0.0747506  
C120     C      0.430690000000     0.429130000000     0.411020000000     0.035618   
C121     C      0.426740000000     0.396900000000     0.409680000000    -0.0856953  
C122     C      0.442960000000     0.386950000000     0.432590000000     0.0726899  
C123     C      0.464160000000     0.438990000000     0.458910000000     0.073989   
C124     C      0.448380000000     0.449630000000     0.436650000000    -0.087534   
C125     C      0.376020000000     0.630600000000     0.338370000000    -0.0876155  
C126     C      0.405180000000     0.662280000000     0.331280000000     0.0358242  
C127     C      0.432560000000     0.664310000000     0.312000000000    -0.0863348  
C128     C      0.429450000000     0.634870000000     0.299100000000     0.07366    
C129     C      0.374050000000     0.601810000000     0.325540000000     0.0744317  
C130     C      0.405250000000     0.692840000000     0.342450000000     0.0361104  
C131     C      0.375500000000     0.696740000000     0.336380000000    -0.0879035  
C132     C      0.374230000000     0.724360000000     0.348350000000     0.0752579  
C133     C      0.431350000000     0.744670000000     0.372190000000     0.0739527  
C134     C      0.433790000000     0.717450000000     0.360040000000    -0.086507   
C135     C      0.236620000000     0.477070000000     0.197070000000    -0.086387   
C136     C      0.241610000000     0.503390000000     0.177330000000     0.0358577  
C137     C      0.276030000000     0.531390000000     0.174400000000    -0.0876166  
C138     C      0.304600000000     0.532900000000     0.191230000000     0.0743003  
C139     C      0.265830000000     0.479720000000     0.214170000000     0.073353   
C140     C      0.211150000000     0.502800000000     0.160540000000     0.0356797  
C141     C      0.190710000000     0.477540000000     0.138880000000    -0.0862799  
C142     C      0.164450000000     0.479710000000     0.121140000000     0.07327    
C143     C      0.177050000000     0.530070000000     0.147290000000     0.0741054  
C144     C      0.203820000000     0.529030000000     0.164880000000    -0.087477   
C145     C      0.395930000000     0.575460000000     0.791360000000     0.409219   
C146     C      0.419470000000     0.503900000000     0.718750000000     0.409046   
C147     C      0.396050000000     0.487910000000     0.810720000000     0.409192   
C148     C      0.327870000000     0.510560000000     0.728480000000     0.408592   
C149     C      0.138030000000     0.575360000000     0.542060000000     0.409732   
C150     C      0.034120000000     0.503780000000     0.609630000000     0.409866   
C151     C      0.049020000000     0.486950000000     0.018740000000     0.409016   
C152     C      0.133730000000     0.509100000000     0.606730000000     0.410548   
C153     C      0.331270000000     0.774140000000     0.939110000000     0.410863   
C154     C      0.396320000000     0.860270000000     0.856960000000     0.40983    
C155     C      0.421480000000     0.867510000000     0.951150000000     0.409622   
C156     C      0.398210000000     0.773330000000     0.879660000000     0.409078   
C157     C      0.763950000000     0.329950000000     0.801200000000     0.415768   
C158     C      0.870840000000     0.397080000000     0.854620000000     0.408422   
C159     C      0.847170000000     0.424600000000     0.767250000000     0.412002   
C160     C      0.780800000000     0.416360000000     0.855470000000     0.414151   
C161     C      0.521130000000     0.332740000000     0.032470000000     0.41033    
C162     C      0.483230000000     0.401290000000     0.975780000000     0.407342   
C163     C      0.523250000000     0.419740000000     0.564870000000     0.41058    
C164     C      0.588960000000     0.414620000000     0.975910000000     0.412287   
C165     C      0.577090000000     0.132150000000     0.692270000000     0.408198   
C166     C      0.512400000000     0.046640000000     0.608070000000     0.408181   
C167     C      0.488340000000     0.039260000000     0.699940000000     0.407993   
C168     C      0.514250000000     0.134760000000     0.627140000000     0.407596   
C169     C      0.545060000000     0.274980000000     0.569770000000    -0.0872393  
C170     C      0.512070000000     0.244880000000     0.570160000000     0.035823   
C171     C      0.481760000000     0.244770000000     0.557680000000    -0.085925   
C172     C      0.485160000000     0.274350000000     0.544750000000     0.0732769  
C173     C      0.547420000000     0.303930000000     0.556980000000     0.0743775  
C174     C      0.510140000000     0.214010000000     0.583250000000     0.0358678  
C175     C      0.537120000000     0.206370000000     0.576090000000    -0.087454   
C176     C      0.537460000000     0.179340000000     0.590550000000     0.0748729  
C177     C      0.484150000000     0.166080000000     0.618360000000     0.0732598  
C178     C      0.482930000000     0.193080000000     0.604150000000    -0.0857328  
C179     C      0.682970000000     0.445080000000     0.954820000000    -0.0865007  
C180     C      0.679320000000     0.433870000000     0.923900000000     0.0357532  
C181     C      0.645210000000     0.418940000000     0.910060000000    -0.086622   
C182     C      0.615440000000     0.413810000000     0.927570000000     0.0734683  
C183     C      0.652600000000     0.439920000000     0.971560000000     0.0737078  
C184     C      0.709920000000     0.434550000000     0.906960000000     0.0358222  
C185     C      0.715830000000     0.443090000000     0.875260000000    -0.0867507  
C186     C      0.741200000000     0.438580000000     0.858640000000     0.073922   
C187     C      0.755990000000     0.418760000000     0.904270000000     0.0733801  
C188     C      0.731200000000     0.423320000000     0.921660000000    -0.0865361  
C189     C      0.678440000000     0.265620000000     0.768580000000    -0.0870792  
C190     C      0.686150000000     0.240250000000     0.760480000000     0.0360068  
C191     C      0.720460000000     0.245170000000     0.767320000000    -0.0861421  
C192     C      0.746110000000     0.275060000000     0.781720000000     0.0739847  
C193     C      0.704590000000     0.295030000000     0.782770000000     0.0747913  
C194     C      0.658370000000     0.209370000000     0.744470000000     0.0358405  
C195     C      0.622230000000     0.194810000000     0.753370000000    -0.087226   
C196     C      0.595640000000     0.168440000000     0.736050000000     0.0748396  
C197     C      0.639610000000     0.168790000000     0.702210000000     0.0734517  
C198     C      0.667060000000     0.195500000000     0.719010000000    -0.0855923  
C199     C      0.477970000000     0.978130000000     0.759210000000    -0.0871817  
C200     C      0.440840000000     0.961290000000     0.764980000000     0.0358221  
C201     C      0.419970000000     0.972800000000     0.749720000000    -0.0850425  
C202     C      0.436280000000     0.999670000000     0.728470000000     0.0724338  
C203     C      0.493050000000     0.004100000000     0.737580000000     0.0754728  
C204     C      0.424930000000     0.931870000000     0.786630000000     0.0357353  
C205     C      0.439850000000     0.910750000000     0.788130000000    -0.0871438  
C206     C      0.429130000000     0.886440000000     0.811320000000     0.0753445  
C207     C      0.385730000000     0.900020000000     0.829690000000     0.0722128  
C208     C      0.396640000000     0.925530000000     0.807130000000    -0.0850615  
C209     C      0.430530000000     0.925170000000     0.013470000000    -0.0879112  
C210     C      0.467940000000     0.944490000000     0.017110000000     0.034509   
C211     C      0.489670000000     0.935540000000     0.999660000000    -0.0827995  
C212     C      0.473770000000     0.908820000000     0.978230000000     0.0715688  
C213     C      0.415800000000     0.899430000000     0.991600000000     0.0762273  
C214     C      0.483210000000     0.974010000000     0.538610000000     0.0358364  
C215     C      0.465810000000     0.992890000000     0.541750000000    -0.0873144  
C216     C      0.476630000000     0.017510000000     0.564620000000     0.0756319  
C217     C      0.524450000000     0.008500000000     0.579520000000     0.072559   
C218     C      0.513650000000     0.982790000000     0.557190000000    -0.0851351  
C219     C      0.993170000000     0.474080000000     0.950290000000    -0.0886     
C220     C      0.980420000000     0.440130000000     0.943530000000     0.0367351  
C221     C      0.991970000000     0.422100000000     0.962030000000    -0.0876272  
C222     C      0.015960000000     0.438350000000     0.986730000000     0.0749151  
C223     C      0.016370000000     0.489210000000     0.975300000000     0.0758469  
C224     C      0.954110000000     0.424120000000     0.917880000000     0.0352998  
C225     C      0.920810000000     0.395110000000     0.923070000000    -0.0858452  
C226     C      0.893500000000     0.384930000000     0.900670000000     0.0731431  
C227     C      0.932590000000     0.429710000000     0.867400000000     0.0735131  
C228     C      0.960300000000     0.440560000000     0.889140000000    -0.0872727  
C229     C      0.921360000000     0.485790000000     0.719220000000    -0.08623    
C230     C      0.917800000000     0.466150000000     0.692930000000     0.0362266  
C231     C      0.886710000000     0.434540000000     0.690130000000    -0.0871489  
C232     C      0.862100000000     0.421810000000     0.714600000000     0.0746342  
C233     C      0.895780000000     0.472400000000     0.743140000000     0.0750205  
C234     C      0.947770000000     0.476640000000     0.670230000000     0.035462   
C235     C      0.969200000000     0.510260000000     0.660830000000    -0.0852788  
C236     C      0.998140000000     0.519130000000     0.640430000000     0.0716589  
C237     C      0.985060000000     0.462400000000     0.638600000000     0.0737568  
C238     C      0.956210000000     0.452740000000     0.658850000000    -0.0866793  
C239     C      0.217860000000     0.632720000000     0.997330000000    -0.0867964  
C240     C      0.216760000000     0.662680000000     0.998940000000     0.0370088  
C241     C      0.188190000000     0.662750000000     0.014710000000    -0.0875554  
C242     C      0.161950000000     0.633260000000     0.029210000000     0.0740974  
C243     C      0.190990000000     0.603710000000     0.011550000000     0.073673   
C244     C      0.246260000000     0.693740000000     0.984970000000     0.0355168  
C245     C      0.281950000000     0.703490000000     0.992180000000    -0.0864293  
C246     C      0.309920000000     0.731140000000     0.977280000000     0.074821   
C247     C      0.268200000000     0.740190000000     0.948450000000     0.073904   
C248     C      0.239390000000     0.712790000000     0.963370000000    -0.085978   
C249     C      0.490850000000     0.505140000000     0.670520000000    -0.0856317  
C250     C      0.472620000000     0.472880000000     0.657200000000     0.0358785  
C251     C      0.435950000000     0.452310000000     0.663900000000    -0.0869783  
C252     C      0.418740000000     0.463380000000     0.684210000000     0.0747396  
C253     C      0.472530000000     0.515640000000     0.690610000000     0.0731623  
C254     C      0.490870000000     0.460360000000     0.635950000000     0.0361018  
C255     C      0.516440000000     0.481530000000     0.613980000000    -0.0859064  
C256     C      0.529070000000     0.467840000000     0.591400000000     0.0746595  
C257     C      0.493290000000     0.413320000000     0.612860000000     0.0748076  
C258     C      0.480760000000     0.426170000000     0.636040000000    -0.0870657  
C259     C      0.446110000000     0.474820000000     0.872600000000    -0.0876925  
C260     C      0.420620000000     0.443410000000     0.884410000000     0.035994   
C261     C      0.386370000000     0.426630000000     0.870730000000    -0.0860526  
C262     C      0.378170000000     0.441930000000     0.846130000000     0.0726471  
C263     C      0.437240000000     0.489030000000     0.847970000000     0.0748614  
C264     C      0.430710000000     0.429150000000     0.911010000000     0.0356384  
C265     C      0.426750000000     0.396900000000     0.909670000000    -0.0856824  
C266     C      0.442960000000     0.386960000000     0.932580000000     0.0727126  
C267     C      0.464180000000     0.439010000000     0.958890000000     0.0741068  
C268     C      0.448410000000     0.449650000000     0.936630000000    -0.087487   
C269     C      0.376020000000     0.630600000000     0.838360000000    -0.0877103  
C270     C      0.405180000000     0.662280000000     0.831270000000     0.0359115  
C271     C      0.432560000000     0.664310000000     0.811990000000    -0.0863692  
C272     C      0.429450000000     0.634870000000     0.799090000000     0.073716   
C273     C      0.374060000000     0.601810000000     0.825530000000     0.0745695  
C274     C      0.405250000000     0.692840000000     0.842450000000     0.0360885  
C275     C      0.375500000000     0.696740000000     0.836380000000    -0.0878937  
C276     C      0.374230000000     0.724350000000     0.848350000000     0.0752697  
C277     C      0.431360000000     0.744670000000     0.872190000000     0.0738615  
C278     C      0.433790000000     0.717450000000     0.860030000000    -0.0863513  
C279     C      0.236630000000     0.477070000000     0.697060000000    -0.0863455  
C280     C      0.241610000000     0.503400000000     0.677320000000     0.0358216  
C281     C      0.276030000000     0.531390000000     0.674390000000    -0.0875397  
C282     C      0.304600000000     0.532900000000     0.691220000000     0.0743224  
C283     C      0.265830000000     0.479720000000     0.714160000000     0.0733758  
C284     C      0.211150000000     0.502800000000     0.660530000000     0.0357627  
C285     C      0.190710000000     0.477540000000     0.638870000000    -0.0862914  
C286     C      0.164450000000     0.479710000000     0.621140000000     0.0732953  
C287     C      0.177050000000     0.530070000000     0.647280000000     0.0742091  
C288     C      0.203830000000     0.529030000000     0.664870000000    -0.0875215  
H1       H      0.455810000000     0.221920000000     0.057430000000     0.0538546  
H2       H      0.461300000000     0.273450000000     0.535120000000     0.0309772  
H3       H      0.573540000000     0.326660000000     0.057300000000     0.0312573  
H4       H      0.569040000000     0.276330000000     0.079620000000     0.0540828  
H5       H      0.558270000000     0.221520000000     0.059620000000     0.0539501  
H6       H      0.559260000000     0.174760000000     0.084590000000     0.0319031  
H7       H      0.463240000000     0.150820000000     0.134990000000     0.0312481  
H8       H      0.461610000000     0.198210000000     0.110310000000     0.0540058  
H9       H      0.641140000000     0.409710000000     0.386290000000     0.0540083  
H10      H      0.589300000000     0.401120000000     0.416300000000     0.0303656  
H11      H      0.656260000000     0.448130000000     0.495680000000     0.0313615  
H12      H      0.708990000000     0.457060000000     0.466220000000     0.0536856  
H13      H      0.700230000000     0.452290000000     0.363160000000     0.0537569  
H14      H      0.744260000000     0.444450000000     0.333920000000     0.0307406  
H15      H      0.770940000000     0.408740000000     0.416210000000     0.0303675  
H16      H      0.727380000000     0.416300000000     0.446080000000     0.0538628  
H17      H      0.727420000000     0.226080000000     0.261680000000     0.0535996  
H18      H      0.772470000000     0.278220000000     0.286470000000     0.0303161  
H19      H      0.697490000000     0.314110000000     0.288240000000     0.0308447  
H20      H      0.652530000000     0.263200000000     0.263310000000     0.0539475  
H21      H      0.614350000000     0.204130000000     0.273350000000     0.0537515  
H22      H      0.567950000000     0.158480000000     0.243430000000     0.0316113  
H23      H      0.647110000000     0.159280000000     0.182100000000     0.0312355  
H24      H      0.694680000000     0.206040000000     0.211300000000     0.0537338  
H25      H      0.391210000000     0.960700000000     0.253500000000     0.0531557  
H26      H      0.419420000000     0.007630000000     0.216610000000     0.0301314  
H27      H      0.521830000000     0.015850000000     0.233660000000     0.0318835  
H28      H      0.495630000000     0.971320000000     0.271290000000     0.0538954  
H29      H      0.460530000000     0.913440000000     0.271940000000     0.0537947  
H30      H      0.442430000000     0.871570000000     0.312210000000     0.0308539  
H31      H      0.364730000000     0.896490000000     0.345930000000     0.029637   
H32      H      0.384090000000     0.941000000000     0.306730000000     0.053152   
H33      H      0.518690000000     0.949620000000     0.501800000000     0.053103   
H34      H      0.491220000000     0.902960000000     0.464550000000     0.029707   
H35      H      0.386710000000     0.885740000000     0.489280000000     0.0316716  
H36      H      0.412410000000     0.929980000000     0.027300000000     0.0539934  
H37      H      0.443260000000     0.988260000000     0.027020000000     0.0538213  
H38      H      0.461540000000     0.030660000000     0.066760000000     0.031084   
H39      H      0.547300000000     0.013990000000     0.094260000000     0.0301375  
H40      H      0.528130000000     0.969090000000     0.055460000000     0.0532163  
H41      H      0.982600000000     0.395780000000     0.457420000000     0.0541758  
H42      H      0.024370000000     0.423820000000     0.500780000000     0.0308157  
H43      H      0.025100000000     0.515460000000     0.479910000000     0.0315208  
H44      H      0.984490000000     0.488770000000     0.436770000000     0.0549202  
H45      H      0.915120000000     0.381730000000     0.445030000000     0.0541395  
H46      H      0.867380000000     0.363470000000     0.406010000000     0.0309341  
H47      H      0.938070000000     0.444070000000     0.345960000000     0.031468   
H48      H      0.985950000000     0.462750000000     0.384110000000     0.05414    
H49      H      0.882140000000     0.418990000000     0.169690000000     0.0534088  
H50      H      0.839350000000     0.396540000000     0.212180000000     0.0301284  
H51      H      0.900340000000     0.487560000000     0.263890000000     0.0319424  
H52      H      0.944820000000     0.510440000000     0.222290000000     0.0537164  
H53      H      0.963590000000     0.529540000000     0.169000000000     0.0531318  
H54      H      0.014170000000     0.545290000000     0.133550000000     0.0318315  
H55      H      0.990570000000     0.442970000000     0.130540000000     0.0313246  
H56      H      0.941110000000     0.426640000000     0.166060000000     0.0537873  
H57      H      0.186620000000     0.685580000000     0.516450000000     0.054736   
H58      H      0.140420000000     0.634190000000     0.041640000000     0.0319672  
H59      H      0.192900000000     0.581040000000     0.509790000000     0.0309974  
H60      H      0.239420000000     0.631710000000     0.485080000000     0.0546307  
H61      H      0.288220000000     0.689550000000     0.509050000000     0.0547636  
H62      H      0.337180000000     0.737520000000     0.483290000000     0.0316673  
H63      H      0.262100000000     0.753950000000     0.431200000000     0.03139    
H64      H      0.212010000000     0.705880000000     0.457270000000     0.0546612  
H65      H      0.420290000000     0.427680000000     0.153360000000     0.0538359  
H66      H      0.390430000000     0.446380000000     0.188910000000     0.031348   
H67      H      0.487480000000     0.540480000000     0.200940000000     0.031241   
H68      H      0.519170000000     0.521900000000     0.166020000000     0.053315   
H69      H      0.525220000000     0.508130000000     0.113120000000     0.0535672  
H70      H      0.547550000000     0.484630000000     0.073900000000     0.0319519  
H71      H      0.483510000000     0.386450000000     0.112970000000     0.0301771  
H72      H      0.462230000000     0.409040000000     0.153320000000     0.0535381  
H73      H      0.366000000000     0.402230000000     0.379310000000     0.0540917  
H74      H      0.351380000000     0.428570000000     0.336120000000     0.0307009  
H75      H      0.457960000000     0.513420000000     0.339670000000     0.031991   
H76      H      0.473040000000     0.488350000000     0.382270000000     0.0549082  
H77      H      0.413110000000     0.380340000000     0.390180000000     0.0541088  
H78      H      0.440980000000     0.362520000000     0.430200000000     0.0308966  
H79      H      0.478730000000     0.456240000000     0.477780000000     0.0317148  
H80      H      0.451330000000     0.474450000000     0.438810000000     0.0545165  
H81      H      0.455470000000     0.688500000000     0.306030000000     0.0547877  
H82      H      0.450580000000     0.637270000000     0.283560000000     0.0318446  
H83      H      0.350710000000     0.577780000000     0.331300000000     0.0311533  
H84      H      0.354510000000     0.628120000000     0.353440000000     0.0546939  
H85      H      0.353130000000     0.678340000000     0.322570000000     0.0549419  
H86      H      0.350450000000     0.726170000000     0.343280000000     0.031851   
H87      H      0.453440000000     0.762950000000     0.386340000000     0.031405   
H88      H      0.457220000000     0.715130000000     0.365120000000     0.0547409  
H89      H      0.280820000000     0.552100000000     0.159170000000     0.0549626  
H90      H      0.330830000000     0.555150000000     0.188350000000     0.031441   
H91      H      0.261080000000     0.459230000000     0.229710000000     0.0313655  
H92      H      0.210230000000     0.455070000000     0.199870000000     0.0547876  
H93      H      0.195830000000     0.456940000000     0.134940000000     0.0548186  
H94      H      0.149640000000     0.460230000000     0.103990000000     0.0312886  
H95      H      0.172500000000     0.551050000000     0.151170000000     0.031108   
H96      H      0.219040000000     0.548880000000     0.181600000000     0.0547913  
H97      H      0.455800000000     0.221930000000     0.557450000000     0.0539579  
H98      H      0.461300000000     0.273450000000     0.035100000000     0.0308927  
H99      H      0.573550000000     0.326650000000     0.557270000000     0.0313409  
H100     H      0.569040000000     0.276320000000     0.579590000000     0.0541371  
H101     H      0.558250000000     0.221510000000     0.559610000000     0.0540791  
H102     H      0.559250000000     0.174750000000     0.584580000000     0.0319505  
H103     H      0.463250000000     0.150830000000     0.635000000000     0.0312405  
H104     H      0.461620000000     0.198220000000     0.610320000000     0.0540672  
H105     H      0.641150000000     0.409700000000     0.886300000000     0.0540865  
H106     H      0.589300000000     0.401110000000     0.916310000000     0.0304105  
H107     H      0.656260000000     0.448130000000     0.995680000000     0.0315835  
H108     H      0.708990000000     0.457060000000     0.966230000000     0.0538173  
H109     H      0.700240000000     0.452290000000     0.863160000000     0.0537776  
H110     H      0.744260000000     0.444450000000     0.833930000000     0.0307698  
H111     H      0.770950000000     0.408740000000     0.916220000000     0.0304238  
H112     H      0.727380000000     0.416300000000     0.946080000000     0.0540489  
H113     H      0.727420000000     0.226070000000     0.761690000000     0.0536301  
H114     H      0.772470000000     0.278210000000     0.786480000000     0.030361   
H115     H      0.697500000000     0.314110000000     0.788240000000     0.0308946  
H116     H      0.652530000000     0.263200000000     0.763320000000     0.0539506  
H117     H      0.614350000000     0.204130000000     0.773350000000     0.0538016  
H118     H      0.567950000000     0.158480000000     0.743430000000     0.0316429  
H119     H      0.647110000000     0.159280000000     0.682100000000     0.0312782  
H120     H      0.694680000000     0.206040000000     0.711310000000     0.0537583  
H121     H      0.391210000000     0.960700000000     0.753510000000     0.0532028  
H122     H      0.419420000000     0.007630000000     0.716610000000     0.0301741  
H123     H      0.521830000000     0.015850000000     0.733660000000     0.031946   
H124     H      0.495630000000     0.971320000000     0.771290000000     0.0539489  
H125     H      0.460530000000     0.913440000000     0.771940000000     0.0538303  
H126     H      0.442430000000     0.871570000000     0.812210000000     0.0308862  
H127     H      0.364730000000     0.896490000000     0.845940000000     0.0296758  
H128     H      0.384090000000     0.941000000000     0.806740000000     0.053204   
H129     H      0.518700000000     0.949620000000     0.001800000000     0.0519924  
H130     H      0.491230000000     0.902960000000     0.964550000000     0.029992   
H131     H      0.386720000000     0.885750000000     0.989270000000     0.0316979  
H132     H      0.412400000000     0.929970000000     0.527300000000     0.054051   
H133     H      0.443240000000     0.988240000000     0.527030000000     0.0538784  
H134     H      0.461530000000     0.030650000000     0.566770000000     0.0311471  
H135     H      0.547300000000     0.013990000000     0.594260000000     0.0302163  
H136     H      0.528120000000     0.969090000000     0.555470000000     0.0532983  
H137     H      0.982600000000     0.395770000000     0.957430000000     0.0544537  
H138     H      0.024370000000     0.423810000000     0.000780000000     0.0299715  
H139     H      0.025130000000     0.515460000000     0.979900000000     0.0317239  
H140     H      0.984510000000     0.488760000000     0.936760000000     0.0550487  
H141     H      0.915120000000     0.381720000000     0.945040000000     0.054237   
H142     H      0.867380000000     0.363460000000     0.906020000000     0.0309965  
H143     H      0.938080000000     0.444050000000     0.845960000000     0.0314825  
H144     H      0.985950000000     0.462740000000     0.884100000000     0.054169   
H145     H      0.882150000000     0.418990000000     0.669700000000     0.053464   
H146     H      0.839350000000     0.396540000000     0.712190000000     0.030159   
H147     H      0.900350000000     0.487550000000     0.763900000000     0.0319407  
H148     H      0.944820000000     0.510440000000     0.722300000000     0.0537559  
H149     H      0.963590000000     0.529540000000     0.669010000000     0.0531586  
H150     H      0.014170000000     0.545300000000     0.633560000000     0.031909   
H151     H      0.990570000000     0.442980000000     0.630550000000     0.0313569  
H152     H      0.941120000000     0.426640000000     0.666060000000     0.0538301  
H153     H      0.186630000000     0.685580000000     0.016450000000     0.0547337  
H154     H      0.140410000000     0.634190000000     0.541640000000     0.0321244  
H155     H      0.192920000000     0.581050000000     0.009800000000     0.0309894  
H156     H      0.239430000000     0.631710000000     0.985090000000     0.0546748  
H157     H      0.288230000000     0.689550000000     0.009060000000     0.0537115  
H158     H      0.337180000000     0.737530000000     0.983300000000     0.0319539  
H159     H      0.262100000000     0.753940000000     0.931210000000     0.0314738  
H160     H      0.212020000000     0.705870000000     0.957280000000     0.0547558  
H161     H      0.420310000000     0.427680000000     0.653360000000     0.0538574  
H162     H      0.390440000000     0.446380000000     0.688900000000     0.031388   
H163     H      0.487480000000     0.540500000000     0.700920000000     0.0313063  
H164     H      0.519180000000     0.521910000000     0.666010000000     0.0533688  
H165     H      0.525220000000     0.508140000000     0.613100000000     0.0536444  
H166     H      0.547560000000     0.484640000000     0.573890000000     0.0320689  
H167     H      0.483550000000     0.386470000000     0.612980000000     0.0302167  
H168     H      0.462260000000     0.409060000000     0.653330000000     0.0535774  
H169     H      0.366010000000     0.402250000000     0.879300000000     0.0541824  
H170     H      0.351390000000     0.428580000000     0.836120000000     0.0307512  
H171     H      0.457980000000     0.513420000000     0.839650000000     0.0319975  
H172     H      0.473060000000     0.488350000000     0.882240000000     0.0549392  
H173     H      0.413110000000     0.380340000000     0.890180000000     0.0541833  
H174     H      0.440980000000     0.362530000000     0.930200000000     0.0309913  
H175     H      0.478760000000     0.456260000000     0.977760000000     0.0318677  
H176     H      0.451370000000     0.474480000000     0.938780000000     0.0546004  
H177     H      0.455470000000     0.688500000000     0.806030000000     0.0548483  
H178     H      0.450580000000     0.637270000000     0.783550000000     0.0318723  
H179     H      0.350720000000     0.577780000000     0.831300000000     0.031158   
H180     H      0.354520000000     0.628120000000     0.853430000000     0.0547934  
H181     H      0.353130000000     0.678340000000     0.822570000000     0.0549691  
H182     H      0.350450000000     0.726170000000     0.843290000000     0.0318932  
H183     H      0.453450000000     0.762950000000     0.886340000000     0.031496   
H184     H      0.457230000000     0.715130000000     0.865120000000     0.0547359  
H185     H      0.280830000000     0.552110000000     0.659160000000     0.0549843  
H186     H      0.330830000000     0.555150000000     0.688340000000     0.0314813  
H187     H      0.261080000000     0.459230000000     0.729700000000     0.031395   
H188     H      0.210240000000     0.455070000000     0.699860000000     0.0548155  
H189     H      0.195830000000     0.456940000000     0.634930000000     0.0548917  
H190     H      0.149630000000     0.460230000000     0.603980000000     0.0313714  
H191     H      0.172510000000     0.551060000000     0.651160000000     0.0311119  
H192     H      0.219040000000     0.548880000000     0.681590000000     0.0548362  
In1      In     0.384630000000     0.518980000000     0.262410000000     2.46008    
In2      In     0.088460000000     0.518220000000     0.069680000000     2.45179    
In3      In     0.387740000000     0.820630000000     0.406540000000     2.4573     
In4      In     0.815090000000     0.391710000000     0.320410000000     2.40682    
In5      In     0.529230000000     0.391680000000     0.511590000000     2.42444    
In6      In     0.522550000000     0.087460000000     0.156760000000     2.46807    
In7      In     0.384630000000     0.518980000000     0.762390000000     2.46053    
In8      In     0.088450000000     0.518230000000     0.569680000000     2.45184    
In9      In     0.387740000000     0.820630000000     0.906540000000     2.45752    
In10     In     0.815090000000     0.391710000000     0.820420000000     2.40699    
In11     In     0.529230000000     0.391680000000     0.011590000000     2.42238    
In12     In     0.522540000000     0.087460000000     0.656770000000     2.46862    
N1       N      0.517770000000     0.303630000000     0.044500000000    -0.193228   
N2       N      0.511660000000     0.159790000000     0.112000000000    -0.192007   
N3       N      0.619000000000     0.423360000000     0.458290000000    -0.194144   
N4       N      0.760000000000     0.425250000000     0.372810000000    -0.194669   
N5       N      0.738250000000     0.299890000000     0.288980000000    -0.194391   
N6       N      0.604170000000     0.156120000000     0.210220000000    -0.192386   
N7       N      0.472380000000     0.014520000000     0.222000000000    -0.192934   
N8       N      0.403090000000     0.881810000000     0.332500000000    -0.194177   
N9       N      0.437200000000     0.891690000000     0.473700000000    -0.19386    
N10      N      0.505060000000     0.024620000000     0.083920000000    -0.193313   
N11      N      0.027470000000     0.471480000000     0.493520000000    -0.193893   
N12      N      0.898980000000     0.403210000000     0.373820000000    -0.193688   
N13      N      0.867630000000     0.439970000000     0.241460000000    -0.19368    
N14      N      0.005900000000     0.495300000000     0.129510000000    -0.19322    
N15      N      0.163520000000     0.604080000000     0.027670000000    -0.192791   
N16      N      0.303110000000     0.748830000000     0.455050000000    -0.192548   
N17      N      0.436930000000     0.494610000000     0.197730000000    -0.193701   
N18      N      0.516050000000     0.433780000000     0.090030000000    -0.193563   
N19      N      0.403510000000     0.472860000000     0.334950000000    -0.193521   
N20      N      0.462820000000     0.408550000000     0.456150000000    -0.193365   
N21      N      0.400090000000     0.603990000000     0.305470000000    -0.19273    
N22      N      0.401570000000     0.747750000000     0.366630000000    -0.192158   
N23      N      0.299450000000     0.507530000000     0.211320000000    -0.19272    
N24      N      0.158090000000     0.506030000000     0.125120000000    -0.193162   
N25      N      0.517770000000     0.303630000000     0.544500000000    -0.193258   
N26      N      0.511650000000     0.159790000000     0.612000000000    -0.192132   
N27      N      0.619000000000     0.423350000000     0.958300000000    -0.19427    
N28      N      0.760010000000     0.425240000000     0.872820000000    -0.19477    
N29      N      0.738250000000     0.299880000000     0.788980000000    -0.194228   
N30      N      0.604170000000     0.156120000000     0.710220000000    -0.192353   
N31      N      0.472380000000     0.014530000000     0.722000000000    -0.192947   
N32      N      0.403090000000     0.881810000000     0.832500000000    -0.194157   
N33      N      0.437210000000     0.891690000000     0.973700000000    -0.193847   
N34      N      0.505050000000     0.024620000000     0.583920000000    -0.193298   
N35      N      0.027480000000     0.471480000000     0.993510000000    -0.193615   
N36      N      0.898980000000     0.403200000000     0.873830000000    -0.193686   
N37      N      0.867630000000     0.439970000000     0.741470000000    -0.193753   
N38      N      0.005910000000     0.495300000000     0.629520000000    -0.193247   
N39      N      0.163510000000     0.604080000000     0.527670000000    -0.192818   
N40      N      0.303120000000     0.748830000000     0.955050000000    -0.19249    
N41      N      0.436940000000     0.494610000000     0.697720000000    -0.193556   
N42      N      0.516070000000     0.433790000000     0.590030000000    -0.193525   
N43      N      0.403530000000     0.472870000000     0.834930000000    -0.193435   
N44      N      0.462830000000     0.408570000000     0.956140000000    -0.193228   
N45      N      0.400090000000     0.603990000000     0.805460000000    -0.1928     
N46      N      0.401570000000     0.747750000000     0.866630000000    -0.192097   
N47      N      0.299450000000     0.507530000000     0.711300000000    -0.192649   
N48      N      0.158090000000     0.506040000000     0.625110000000    -0.193308   
O1       O      0.359450000000     0.535020000000     0.224900000000    -0.518998   
O2       O      0.324670000000     0.489670000000     0.249480000000    -0.491994   
O3       O      0.433730000000     0.532780000000     0.231270000000    -0.492038   
O4       O      0.417470000000     0.575820000000     0.270840000000    -0.491316   
O5       O      0.365280000000     0.475640000000     0.298070000000    -0.491527   
O6       O      0.369330000000     0.546670000000     0.297170000000    -0.519195   
O7       O      0.387910000000     0.483590000000     0.227960000000    -0.52363    
O8       O      0.419860000000     0.515380000000     0.299130000000    -0.52492    
O9       O      0.126560000000     0.532490000000     0.110590000000    -0.519093   
O10      O      0.117560000000     0.489630000000     0.084000000000    -0.493319   
O11      O      0.054940000000     0.533580000000     0.100340000000    -0.491947   
O12      O      0.113280000000     0.574390000000     0.059030000000    -0.489803   
O13      O      0.062570000000     0.473370000000     0.035620000000    -0.48985    
O14      O      0.137550000000     0.547620000000     0.039420000000    -0.516904   
O15      O      0.041260000000     0.482080000000     0.098950000000    -0.523102   
O16      O      0.056060000000     0.515910000000     0.027510000000    -0.521387   
O17      O      0.371200000000     0.776820000000     0.374220000000    -0.517514   
O18      O      0.420960000000     0.794530000000     0.398720000000    -0.488472   
O19      O      0.369770000000     0.850750000000     0.375290000000    -0.493275   
O20      O      0.327160000000     0.790100000000     0.416690000000    -0.489067   
O21      O      0.438100000000     0.855800000000     0.435760000000    -0.492833   
O22      O      0.363590000000     0.782370000000     0.444920000000    -0.51854    
O23      O      0.417430000000     0.849510000000     0.363760000000    -0.524673   
O24      O      0.388850000000     0.855510000000     0.443730000000    -0.526076   
O25      O      0.794930000000     0.400280000000     0.366840000000    -0.508937   
O26      O      0.785010000000     0.421080000000     0.326360000000    -0.496526   
O27      O      0.838810000000     0.373950000000     0.359470000000    -0.486126   
O28      O      0.795790000000     0.336630000000     0.307040000000    -0.491807   
O29      O      0.850740000000     0.439860000000     0.292740000000    -0.483624   
O30      O      0.758130000000     0.354010000000     0.305990000000    -0.512745   
O31      O      0.874360000000     0.416280000000     0.332170000000    -0.506814   
O32      O      0.826230000000     0.393170000000     0.268480000000    -0.507037   
O33      O      0.557550000000     0.395810000000     0.465600000000    -0.514755   
O34      O      0.590330000000     0.422750000000     0.504300000000    -0.492481   
O35      O      0.483620000000     0.373810000000     0.475090000000    -0.485251   
O36      O      0.495260000000     0.334580000000     0.520120000000    -0.488909   
O37      O      0.545210000000     0.437030000000     0.543580000000    -0.484529   
O38      O      0.550480000000     0.360290000000     0.533540000000    -0.515358   
O39      O      0.505250000000     0.422770000000     0.494680000000    -0.514608   
O40      O      0.505680000000     0.388470000000     0.559580000000    -0.512242   
O41      O      0.540240000000     0.129570000000     0.122260000000    -0.520762   
O42      O      0.491630000000     0.115600000000     0.147430000000    -0.490737   
O43      O      0.540620000000     0.058170000000     0.124700000000    -0.491627   
O44      O      0.582690000000     0.118880000000     0.168430000000    -0.491408   
O45      O      0.472630000000     0.053230000000     0.186670000000    -0.491434   
O46      O      0.544330000000     0.122460000000     0.197770000000    -0.520943   
O47      O      0.490430000000     0.056040000000     0.116150000000    -0.525668   
O48      O      0.520320000000     0.049730000000     0.191090000000    -0.526301   
O49      O      0.359450000000     0.535030000000     0.724890000000    -0.519052   
O50      O      0.324680000000     0.489670000000     0.749470000000    -0.491949   
O51      O      0.433730000000     0.532790000000     0.731260000000    -0.492127   
O52      O      0.417470000000     0.575820000000     0.770830000000    -0.491424   
O53      O      0.365280000000     0.475650000000     0.798060000000    -0.491411   
O54      O      0.369340000000     0.546670000000     0.797150000000    -0.5194     
O55      O      0.387920000000     0.483590000000     0.727950000000    -0.523721   
O56      O      0.419870000000     0.515390000000     0.799110000000    -0.524773   
O57      O      0.126560000000     0.532490000000     0.610590000000    -0.51906    
O58      O      0.117560000000     0.489640000000     0.584000000000    -0.493265   
O59      O      0.054940000000     0.533580000000     0.600350000000    -0.492254   
O60      O      0.113270000000     0.574390000000     0.559030000000    -0.489887   
O61      O      0.062560000000     0.473370000000     0.535620000000    -0.48971    
O62      O      0.137540000000     0.547620000000     0.539410000000    -0.516701   
O63      O      0.041260000000     0.482090000000     0.598950000000    -0.523233   
O64      O      0.056040000000     0.515910000000     0.527510000000    -0.52128    
O65      O      0.371200000000     0.776820000000     0.874220000000    -0.517495   
O66      O      0.420960000000     0.794530000000     0.898720000000    -0.488426   
O67      O      0.369770000000     0.850750000000     0.875290000000    -0.493179   
O68      O      0.327170000000     0.790100000000     0.916690000000    -0.489201   
O69      O      0.438100000000     0.855800000000     0.935760000000    -0.492828   
O70      O      0.363590000000     0.782380000000     0.944930000000    -0.518541   
O71      O      0.417430000000     0.849500000000     0.863760000000    -0.524558   
O72      O      0.388860000000     0.855520000000     0.943730000000    -0.526098   
O73      O      0.794930000000     0.400280000000     0.866850000000    -0.5089     
O74      O      0.785010000000     0.421070000000     0.826360000000    -0.496584   
O75      O      0.838810000000     0.373950000000     0.859480000000    -0.486164   
O76      O      0.795800000000     0.336630000000     0.807050000000    -0.491493   
O77      O      0.850740000000     0.439850000000     0.792750000000    -0.483867   
O78      O      0.758130000000     0.354010000000     0.806000000000    -0.512575   
O79      O      0.874370000000     0.416260000000     0.832170000000    -0.506823   
O80      O      0.826230000000     0.393170000000     0.768490000000    -0.507088   
O81      O      0.557550000000     0.395810000000     0.965600000000    -0.51446    
O82      O      0.590320000000     0.422750000000     0.004300000000    -0.493442   
O83      O      0.483620000000     0.373810000000     0.975100000000    -0.484731   
O84      O      0.495250000000     0.334570000000     0.020110000000    -0.488563   
O85      O      0.545200000000     0.437030000000     0.043590000000    -0.484364   
O86      O      0.550480000000     0.360300000000     0.033550000000    -0.515207   
O87      O      0.505260000000     0.422780000000     0.994660000000    -0.51394    
O88      O      0.505650000000     0.388460000000     0.059570000000    -0.512092   
O89      O      0.540230000000     0.129570000000     0.622260000000    -0.52077    
O90      O      0.491640000000     0.115600000000     0.647430000000    -0.491215   
O91      O      0.540610000000     0.058170000000     0.624710000000    -0.491578   
O92      O      0.582690000000     0.118880000000     0.668430000000    -0.491271   
O93      O      0.472630000000     0.053230000000     0.686670000000    -0.491627   
O94      O      0.544330000000     0.122460000000     0.697770000000    -0.521222   
O95      O      0.490420000000     0.056030000000     0.616160000000    -0.525672   
O96      O      0.520320000000     0.049730000000     0.691090000000    -0.52637    


