data_structure

_audit_creation_method RASPA-1.0
_audit_creation_date 2023-5-23
_audit_author_name 'Poobodin Mano'

_cell_length_a    30.845
_cell_length_b    29.8261
_cell_length_c    69.8015
_cell_angle_alpha 89.9099
_cell_angle_beta  90.2676
_cell_angle_gamma 90.1263
_cell_volume      64215.5

_symmetry_cell_setting          triclinic
_symmetry_space_group_name_Hall 'P 1'
_symmetry_space_group_name_H-M  'P 1'
_symmetry_Int_Tables_number     1

_symmetry_equiv_pos_as_xyz 'x,y,z'

loop_
_atom_site_label
_atom_site_type_symbol
_atom_site_fract_x
_atom_site_fract_y
_atom_site_fract_z
_atom_site_charge
C1       C      0.057950000000     0.353310000000     0.836030000000     0.419856   
C2       C      0.956660000000     0.442730000000     0.318680000000     0.408882   
C3       C      0.973610000000     0.416570000000     0.882230000000     0.419816   
C4       C      0.072790000000     0.490890000000     0.851900000000     0.412396   
C5       C      0.075320000000     0.316830000000     0.098740000000     0.416966   
C6       C      0.977630000000     0.416720000000     0.082150000000     0.407262   
C7       C      0.981060000000     0.381200000000     0.142140000000     0.413612   
C8       C      0.097310000000     0.447010000000     0.118000000000     0.410706   
C9       C      0.811790000000     0.641580000000     0.933930000000     0.415224   
C10      C      0.887230000000     0.537270000000     0.958940000000     0.411118   
C11      C      0.864440000000     0.538680000000     0.893190000000     0.41707    
C12      C      0.948710000000     0.633750000000     0.917960000000     0.413358   
C13      C      0.780460000000     0.638620000000     0.164460000000     0.410849   
C14      C      0.850530000000     0.531760000000     0.194110000000     0.422786   
C15      C      0.829350000000     0.516640000000     0.132150000000     0.40713    
C16      C      0.911240000000     0.628240000000     0.149780000000     0.419371   
C17      C      0.913820000000     0.209810000000     0.052720000000     0.407972   
C18      C      0.835330000000     0.308360000000     0.071410000000     0.409881   
C19      C      0.875930000000     0.316220000000     0.007280000000     0.410775   
C20      C      0.789640000000     0.216110000000     0.022220000000     0.404646   
C21      C      0.925830000000     0.151130000000     0.301560000000     0.413871   
C22      C      0.851690000000     0.266430000000     0.325560000000     0.415937   
C23      C      0.881900000000     0.271490000000     0.265640000000     0.411347   
C24      C      0.796480000000     0.162480000000     0.284180000000     0.414569   
C25      C      0.634530000000     0.443750000000     0.969980000000     0.417142   
C26      C      0.741150000000     0.362740000000     0.948710000000     0.413084   
C27      C      0.742530000000     0.390830000000     0.010470000000     0.42024    
C28      C      0.633890000000     0.315690000000     0.991100000000     0.415514   
C29      C      0.676420000000     0.463730000000     0.225640000000     0.413804   
C30      C      0.778740000000     0.375980000000     0.205670000000     0.410526   
C31      C      0.774970000000     0.423830000000     0.268540000000     0.412213   
C32      C      0.674590000000     0.331530000000     0.245280000000     0.412768   
C33      C      0.423460000000     0.674330000000     0.932200000000     0.413781   
C34      C      0.337570000000     0.780640000000     0.953800000000     0.41589    
C35      C      0.390980000000     0.788580000000     0.893680000000     0.407434   
C36      C      0.296210000000     0.685670000000     0.907350000000     0.409601   
C37      C      0.322390000000     0.665640000000     0.153170000000     0.420447   
C38      C      0.407970000000     0.768790000000     0.131450000000     0.409207   
C39      C      0.380140000000     0.773080000000     0.194510000000     0.414416   
C40      C      0.452610000000     0.663190000000     0.173420000000     0.409203   
C41      C      0.574510000000     0.991750000000     0.983140000000     0.413884   
C42      C      0.474470000000     0.888680000000     0.004820000000     0.409507   
C43      C      0.466370000000     0.937160000000     0.946600000000     0.41254    
C44      C      0.584790000000     0.858830000000     0.966790000000     0.41267    
C45      C      0.560020000000     0.965140000000     0.242750000000     0.412542   
C46      C      0.468290000000     0.876360000000     0.263410000000     0.41191    
C47      C      0.443930000000     0.916560000000     0.202930000000     0.410428   
C48      C      0.559860000000     0.844700000000     0.211810000000     0.4104     
C49      C      0.416220000000     0.101090000000     0.036800000000     0.413529   
C50      C      0.338540000000     0.012740000000     0.007290000000     0.417927   
C51      C      0.368440000000     0.989910000000     0.072450000000     0.406041   
C52      C      0.280000000000     0.090950000000     0.056160000000     0.42137    
C53      C      0.289230000000     0.148180000000     0.299040000000     0.413386   
C54      C      0.365700000000     0.042840000000     0.322880000000     0.411734   
C55      C      0.344100000000     0.052030000000     0.257610000000     0.418862   
C56      C      0.429860000000     0.145580000000     0.286490000000     0.413787   
C57      C      0.157040000000     0.940240000000     0.836980000000     0.412697   
C58      C      0.278500000000     0.870780000000     0.318100000000     0.412014   
C59      C      0.268090000000     0.918460000000     0.876940000000     0.409638   
C60      C      0.177090000000     0.812660000000     0.859790000000     0.413097   
C61      C      0.128370000000     0.993250000000     0.099850000000     0.410874   
C62      C      0.226120000000     0.901870000000     0.073690000000     0.419279   
C63      C      0.237390000000     0.944970000000     0.134770000000     0.409993   
C64      C      0.129970000000     0.853310000000     0.115330000000     0.415215   
C65      C      0.299120000000     0.977420000000     0.220950000000    -0.0870651  
C66      C      0.316230000000     0.996550000000     0.204240000000     0.0370032  
C67      C      0.345310000000     0.032380000000     0.206030000000    -0.0859368  
C68      C      0.355250000000     0.049520000000     0.224080000000     0.0760687  
C69      C      0.309500000000     0.995740000000     0.238830000000     0.0734627  
C70      C      0.300740000000     0.982060000000     0.185040000000     0.0355904  
C71      C      0.293440000000     0.936740000000     0.180910000000    -0.0833902  
C72      C      0.274040000000     0.924600000000     0.163530000000     0.0711278  
C73      C      0.270880000000     0.000820000000     0.153920000000     0.0725547  
C74      C      0.290390000000     0.014100000000     0.171050000000    -0.0866985  
C75      C      0.316370000000     0.940090000000     0.966160000000    -0.0875371  
C76      C      0.321790000000     0.970360000000     0.950940000000     0.0372765  
C77      C      0.335190000000     0.014120000000     0.955070000000    -0.0878086  
C78      C      0.341140000000     0.027350000000     0.974000000000     0.0767782  
C79      C      0.322780000000     0.954560000000     0.985020000000     0.0733334  
C80      C      0.310780000000     0.957600000000     0.930990000000     0.0355922  
C81      C      0.321890000000     0.915520000000     0.923680000000    -0.0830638  
C82      C      0.309000000000     0.903700000000     0.905160000000     0.0713371  
C83      C      0.274930000000     0.974220000000     0.900890000000     0.0719366  
C84      C      0.287620000000     0.987310000000     0.919230000000    -0.0880564  
C85      C      0.349030000000     0.934760000000     0.118470000000    -0.0865099  
C86      C      0.387030000000     0.946490000000     0.128270000000     0.0348528  
C87      C      0.420700000000     0.966920000000     0.118150000000    -0.0872559  
C88      C      0.414930000000     0.978040000000     0.098960000000     0.0718057  
C89      C      0.343830000000     0.947600000000     0.099290000000     0.0712272  
C90      C      0.392120000000     0.939180000000     0.149070000000     0.039372   
C91      C      0.403220000000     0.975280000000     0.160910000000    -0.0887573  
C92      C      0.417090000000     0.967340000000     0.179630000000     0.0736182  
C93      C      0.406010000000     0.889240000000     0.175600000000     0.0772021  
C94      C      0.391390000000     0.896020000000     0.156840000000    -0.0913265  
C95      C      0.357840000000     0.015070000000     0.873580000000    -0.0854749  
C96      C      0.391480000000     0.984110000000     0.875770000000     0.0354951  
C97      C      0.413740000000     0.969900000000     0.859390000000    -0.087024   
C98      C      0.403910000000     0.988900000000     0.841560000000     0.071237   
C99      C      0.348070000000     0.032290000000     0.855530000000     0.0736749  
C100     C      0.405960000000     0.970130000000     0.895170000000     0.0386177  
C101     C      0.409920000000     0.001900000000     0.909860000000    -0.0874873  
C102     C      0.428470000000     0.989760000000     0.927360000000     0.0740044  
C103     C      0.436260000000     0.914740000000     0.916730000000     0.0736444  
C104     C      0.418490000000     0.925910000000     0.898910000000    -0.0886788  
C105     C      0.330320000000     0.843190000000     0.231240000000    -0.0876462  
C106     C      0.355540000000     0.831830000000     0.247280000000     0.0359021  
C107     C      0.391930000000     0.804690000000     0.244710000000    -0.0882518  
C108     C      0.401230000000     0.787690000000     0.226590000000     0.0797089  
C109     C      0.339870000000     0.824510000000     0.213390000000     0.0747463  
C110     C      0.341030000000     0.843850000000     0.266800000000     0.0365854  
C111     C      0.328270000000     0.887580000000     0.271210000000    -0.0860587  
C112     C      0.309750000000     0.896730000000     0.289030000000     0.0715892  
C113     C      0.317110000000     0.820520000000     0.298230000000     0.0726817  
C114     C      0.336670000000     0.810480000000     0.280780000000    -0.0854674  
C115     C      0.428830000000     0.886740000000     0.053020000000    -0.0871812  
C116     C      0.432170000000     0.841040000000     0.057420000000     0.0339351  
C117     C      0.443740000000     0.811280000000     0.042810000000    -0.0881009  
C118     C      0.455280000000     0.827710000000     0.024850000000     0.0712291  
C119     C      0.440490000000     0.902080000000     0.034800000000     0.0742807  
C120     C      0.426640000000     0.824430000000     0.077330000000     0.0358053  
C121     C      0.455590000000     0.792760000000     0.084810000000    -0.086956   
C122     C      0.449640000000     0.775830000000     0.103210000000     0.0741829  
C123     C      0.387740000000     0.821720000000     0.107400000000     0.0729649  
C124     C      0.393040000000     0.839750000000     0.089020000000    -0.0864534  
C125     C      0.303870000000     0.851200000000     0.040620000000    -0.0862545  
C126     C      0.283930000000     0.860420000000     0.022990000000     0.0393403  
C127     C      0.246780000000     0.887220000000     0.022690000000    -0.0867232  
C128     C      0.228880000000     0.902080000000     0.039800000000     0.0781183  
C129     C      0.284690000000     0.866320000000     0.057580000000     0.0780205  
C130     C      0.299070000000     0.839400000000     0.005030000000     0.0322142  
C131     C      0.342440000000     0.841890000000     0.999260000000    -0.0865422  
C132     C      0.354780000000     0.823220000000     0.981710000000     0.0702015  
C133     C      0.282810000000     0.797910000000     0.976170000000     0.0717901  
C134     C      0.269220000000     0.817170000000     0.993250000000    -0.0872804  
C135     C      0.416510000000     0.885870000000     0.310310000000    -0.0856595  
C136     C      0.433950000000     0.848530000000     0.319800000000     0.0365077  
C137     C      0.460280000000     0.819180000000     0.309450000000    -0.0878585  
C138     C      0.470040000000     0.828290000000     0.290390000000     0.0731572  
C139     C      0.427530000000     0.894390000000     0.291230000000     0.0757714  
C140     C      0.424180000000     0.839090000000     0.840230000000     0.0307791  
C141     C      0.456140000000     0.821550000000     0.852480000000    -0.0863412  
C142     C      0.445030000000     0.806950000000     0.870840000000     0.0694474  
C143     C      0.372250000000     0.829380000000     0.865710000000     0.0663841  
C144     C      0.382230000000     0.844560000000     0.847350000000    -0.081509   
C145     C      0.506030000000     0.566520000000     0.195330000000    -0.086795   
C146     C      0.549530000000     0.580080000000     0.195110000000     0.0361178  
C147     C      0.559950000000     0.621350000000     0.186720000000    -0.087704   
C148     C      0.527180000000     0.648560000000     0.179260000000     0.074005   
C149     C      0.474100000000     0.594380000000     0.187620000000     0.0741767  
C150     C      0.583800000000     0.551330000000     0.203630000000     0.0356748  
C151     C      0.576520000000     0.528400000000     0.220860000000    -0.0869641  
C152     C      0.608420000000     0.500160000000     0.228330000000     0.0753865  
C153     C      0.655050000000     0.517640000000     0.202430000000     0.0747069  
C154     C      0.623910000000     0.546220000000     0.194570000000    -0.0859655  
C155     C      0.572320000000     0.269890000000     0.245940000000    -0.0872751  
C156     C      0.576300000000     0.245060000000     0.262900000000     0.0355336  
C157     C      0.615700000000     0.246760000000     0.272960000000    -0.0853722  
C158     C      0.649060000000     0.274840000000     0.266530000000     0.0730299  
C159     C      0.606240000000     0.297330000000     0.239910000000     0.0751623  
C160     C      0.538620000000     0.219350000000     0.270300000000     0.0357742  
C161     C      0.497120000000     0.238260000000     0.269650000000    -0.0871059  
C162     C      0.461350000000     0.213470000000     0.275680000000     0.0748557  
C163     C      0.506600000000     0.151960000000     0.283640000000     0.0730595  
C164     C      0.543300000000     0.175950000000     0.277750000000    -0.0860147  
C165     C      0.502720000000     0.583630000000     0.928880000000    -0.0870573  
C166     C      0.515890000000     0.579130000000     0.948040000000     0.0357775  
C167     C      0.497980000000     0.608010000000     0.961680000000    -0.0863504  
C168     C      0.467290000000     0.639890000000     0.956100000000     0.0741988  
C169     C      0.471980000000     0.615890000000     0.923810000000     0.0750227  
C170     C      0.547370000000     0.543850000000     0.953810000000     0.0358754  
C171     C      0.544970000000     0.500910000000     0.945760000000    -0.0869832  
C172     C      0.574390000000     0.467900000000     0.951380000000     0.0752135  
C173     C      0.608700000000     0.518560000000     0.972800000000     0.07422    
C174     C      0.579740000000     0.552450000000     0.967500000000    -0.0864539  
C175     C      0.473080000000     0.205170000000     0.025630000000    -0.0870479  
C176     C      0.513080000000     0.189200000000     0.019100000000     0.0360157  
C177     C      0.520410000000     0.142870000000     0.019280000000    -0.0869609  
C178     C      0.487980000000     0.113740000000     0.025670000000     0.0749508  
C179     C      0.441560000000     0.175220000000     0.031980000000     0.0753615  
C180     C      0.546570000000     0.221070000000     0.012100000000     0.0345474  
C181     C      0.572350000000     0.211160000000     0.996150000000    -0.0874435  
C182     C      0.601860000000     0.243030000000     0.989310000000     0.0732002  
C183     C      0.581350000000     0.293650000000     0.013800000000     0.0753226  
C184     C      0.552000000000     0.262630000000     0.021080000000    -0.088099   
C185     C      0.983350000000     0.059310000000     0.825270000000    -0.0867775  
C186     C      0.022990000000     0.059590000000     0.315560000000     0.0356691  
C187     C      0.028870000000     0.090540000000     0.300660000000    -0.0865204  
C188     C      0.995800000000     0.120660000000     0.296000000000     0.0736059  
C189     C      0.950980000000     0.089760000000     0.820190000000     0.0742399  
C190     C      0.058130000000     0.028120000000     0.821140000000     0.0358815  
C191     C      0.067210000000     0.019600000000     0.840490000000    -0.0867675  
C192     C      0.100410000000     0.990050000000     0.845540000000     0.074298   
C193     C      0.115800000000     0.976850000000     0.312770000000     0.0742765  
C194     C      0.082940000000     0.006370000000     0.307220000000    -0.0865068  
C195     C      0.639680000000     0.022120000000     0.273110000000    -0.0872242  
C196     C      0.653280000000     0.056940000000     0.261090000000     0.0349481  
C197     C      0.633290000000     0.061820000000     0.243150000000    -0.0872684  
C198     C      0.601070000000     0.031560000000     0.237430000000     0.0741391  
C199     C      0.607920000000     0.992100000000     0.266820000000     0.0739533  
C200     C      0.689740000000     0.086440000000     0.266910000000     0.0354697  
C201     C      0.691270000000     0.105490000000     0.285220000000    -0.0880685  
C202     C      0.727100000000     0.131250000000     0.290730000000     0.0736081  
C203     C      0.759960000000     0.119390000000     0.260510000000     0.0748191  
C204     C      0.724400000000     0.094000000000     0.254440000000    -0.0868702  
C205     C      0.779740000000     0.375010000000     0.899720000000    -0.0884385  
C206     C      0.801210000000     0.334330000000     0.896980000000     0.0324494  
C207     C      0.804840000000     0.304520000000     0.912460000000    -0.0877016  
C208     C      0.785590000000     0.315040000000     0.929960000000     0.0709787  
C209     C      0.761650000000     0.384790000000     0.917450000000     0.0718339  
C210     C      0.817320000000     0.321790000000     0.877790000000     0.0352283  
C211     C      0.791310000000     0.328480000000     0.861540000000    -0.0887668  
C212     C      0.804410000000     0.311680000000     0.843870000000     0.0722836  
C213     C      0.869650000000     0.284450000000     0.857730000000     0.0755221  
C214     C      0.857470000000     0.300670000000     0.875650000000    -0.0868334  
C215     C      0.027610000000     0.057040000000     0.096320000000    -0.0863564  
C216     C      0.039410000000     0.091540000000     0.083700000000     0.0351908  
C217     C      0.082750000000     0.094190000000     0.077830000000    -0.0857781  
C218     C      0.112590000000     0.061910000000     0.083930000000     0.0729019  
C219     C      0.058150000000     0.025170000000     0.102010000000     0.0726823  
C220     C      0.006280000000     0.123170000000     0.076010000000     0.0358196  
C221     C      0.964470000000     0.107930000000     0.071420000000    -0.0861399  
C222     C      0.933940000000     0.137430000000     0.063720000000     0.0733034  
C223     C      0.984920000000     0.196990000000     0.064860000000     0.0740203  
C224     C      0.016250000000     0.168410000000     0.072680000000    -0.0864674  
C225     C      0.736260000000     0.124010000000     0.996750000000    -0.0829718  
C226     C      0.692930000000     0.129990000000     0.002060000000     0.0329325  
C227     C      0.682370000000     0.167070000000     0.013420000000    -0.0845457  
C228     C      0.714980000000     0.196520000000     0.019540000000     0.074523   
C229     C      0.768070000000     0.153690000000     0.003340000000     0.0724362  
C230     C      0.659590000000     0.096220000000     0.996600000000     0.0367724  
C231     C      0.658210000000     0.078220000000     0.978070000000    -0.0880174  
C232     C      0.628810000000     0.043950000000     0.973660000000     0.0727359  
C233     C      0.601670000000     0.045250000000     0.005380000000     0.070747   
C234     C      0.630410000000     0.079760000000     0.010230000000    -0.0900864  
C235     C      0.797790000000     0.318380000000     0.160600000000    -0.0885019  
C236     C      0.815080000000     0.352830000000     0.149290000000     0.0344133  
C237     C      0.825530000000     0.393700000000     0.158100000000    -0.0837609  
C238     C      0.815440000000     0.400260000000     0.177470000000     0.0732566  
C239     C      0.787550000000     0.326290000000     0.179650000000     0.0693096  
C240     C      0.819280000000     0.346040000000     0.128300000000     0.0351871  
C241     C      0.855310000000     0.361400000000     0.117990000000    -0.0826376  
C242     C      0.859510000000     0.350180000000     0.098570000000     0.073338   
C243     C      0.792480000000     0.311140000000     0.099320000000     0.0705957  
C244     C      0.786990000000     0.322160000000     0.118470000000    -0.0876499  
C245     C      0.726830000000     0.739470000000     0.181930000000    -0.0871164  
C246     C      0.683130000000     0.728910000000     0.178830000000     0.0360393  
C247     C      0.672820000000     0.688510000000     0.169640000000    -0.0871252  
C248     C      0.705900000000     0.659070000000     0.164350000000     0.0728718  
C249     C      0.758960000000     0.709330000000     0.176510000000     0.0750561  
C250     C      0.648750000000     0.759130000000     0.186060000000     0.0355469  
C251     C      0.613170000000     0.741840000000     0.196060000000    -0.0854975  
C252     C      0.583160000000     0.770950000000     0.204280000000     0.0748754  
C253     C      0.622100000000     0.833820000000     0.192530000000     0.0733927  
C254     C      0.652650000000     0.805690000000     0.184110000000    -0.0864015  
C255     C      0.058560000000     0.780970000000     0.143530000000    -0.0865464  
C256     C      0.043870000000     0.750600000000     0.129650000000     0.0356535  
C257     C      0.059950000000     0.754510000000     0.110970000000    -0.0864235  
C258     C      0.089390000000     0.788610000000     0.106480000000     0.0731149  
C259     C      0.087760000000     0.814820000000     0.138520000000     0.0747406  
C260     C      0.010560000000     0.716330000000     0.134490000000     0.0361081  
C261     C      0.012420000000     0.692600000000     0.151830000000    -0.0866023  
C262     C      0.979360000000     0.662440000000     0.156570000000     0.0748193  
C263     C      0.942970000000     0.678250000000     0.127340000000     0.0756927  
C264     C      0.975550000000     0.708360000000     0.122100000000    -0.0867742  
C265     C      0.765540000000     0.389120000000     0.061560000000    -0.0870854  
C266     C      0.792610000000     0.426450000000     0.063480000000     0.0368304  
C267     C      0.806530000000     0.448740000000     0.046910000000    -0.0872103  
C268     C      0.790900000000     0.435290000000     0.029010000000     0.0770682  
C269     C      0.752080000000     0.375450000000     0.043430000000     0.0772009  
C270     C      0.803600000000     0.444320000000     0.082660000000     0.0386867  
C271     C      0.771460000000     0.449600000000     0.096570000000    -0.0863449  
C272     C      0.781100000000     0.472280000000     0.113540000000     0.0729052  
C273     C      0.854280000000     0.481210000000     0.103910000000     0.0723618  
C274     C      0.845600000000     0.459150000000     0.086730000000    -0.09023    
C275     C      0.704390000000     0.693790000000     0.936250000000    -0.0862915  
C276     C      0.712940000000     0.730860000000     0.948040000000     0.0360077  
C277     C      0.755260000000     0.737190000000     0.954840000000    -0.087175   
C278     C      0.787810000000     0.707050000000     0.949870000000     0.0760245  
C279     C      0.737800000000     0.664010000000     0.931650000000     0.0737039  
C280     C      0.678290000000     0.763260000000     0.953100000000     0.0354406  
C281     C      0.648950000000     0.778650000000     0.939220000000    -0.0860651  
C282     C      0.617890000000     0.810700000000     0.944060000000     0.0740333  
C283     C      0.643440000000     0.811950000000     0.976150000000     0.0736707  
C284     C      0.675090000000     0.780180000000     0.971770000000    -0.0864074  
C285     C      0.011990000000     0.715740000000     0.891290000000    -0.0881197  
C286     C      0.054140000000     0.699640000000     0.893810000000     0.0354806  
C287     C      0.060860000000     0.662580000000     0.905820000000    -0.0884828  
C288     C      0.025230000000     0.641190000000     0.914260000000     0.0736089  
C289     C      0.977470000000     0.694220000000     0.900170000000     0.0766228  
C290     C      0.090420000000     0.722720000000     0.884100000000     0.0324076  
C291     C      0.086830000000     0.734450000000     0.864710000000    -0.0889756  
C292     C      0.117600000000     0.762710000000     0.856450000000     0.0716457  
C293     C      0.156730000000     0.765730000000     0.885760000000     0.0701726  
C294     C      0.126750000000     0.737120000000     0.894450000000    -0.0869316  
C295     C      0.863930000000     0.518480000000     0.841760000000    -0.0848111  
C296     C      0.840540000000     0.478400000000     0.840480000000     0.0354708  
C297     C      0.829110000000     0.456200000000     0.857450000000    -0.0846487  
C298     C      0.838490000000     0.476090000000     0.875190000000     0.073412   
C299     C      0.872920000000     0.537080000000     0.859580000000     0.0739004  
C300     C      0.824480000000     0.463060000000     0.321550000000     0.037845   
C301     C      0.805410000000     0.494130000000     0.309080000000    -0.0884723  
C302     C      0.789480000000     0.480300000000     0.291390000000     0.0738176  
C303     C      0.811430000000     0.405530000000     0.297730000000     0.0732752  
C304     C      0.827250000000     0.418200000000     0.315800000000    -0.0852945  
C305     C      0.229580000000     0.589460000000     0.156860000000    -0.0869353  
C306     C      0.225540000000     0.574570000000     0.137900000000     0.0359782  
C307     C      0.253910000000     0.591800000000     0.124130000000    -0.0870534  
C308     C      0.285940000000     0.622500000000     0.129490000000     0.0742024  
C309     C      0.261670000000     0.620690000000     0.161680000000     0.0744754  
C310     C      0.192220000000     0.540870000000     0.132540000000     0.0356674  
C311     C      0.186020000000     0.502390000000     0.143720000000    -0.0867305  
C312     C      0.154660000000     0.470860000000     0.138420000000     0.0742562  
C313     C      0.135120000000     0.514740000000     0.111370000000     0.0736816  
C314     C      0.166570000000     0.546680000000     0.116120000000    -0.0864148  
C315     C      0.130750000000     0.208530000000     0.098920000000    -0.0889968  
C316     C      0.148600000000     0.208070000000     0.080510000000     0.0331495  
C317     C      0.138990000000     0.243370000000     0.067980000000    -0.0883733  
C318     C      0.113770000000     0.279150000000     0.074260000000     0.0730193  
C319     C      0.105120000000     0.244640000000     0.104650000000     0.0721305  
C320     C      0.180140000000     0.173230000000     0.074860000000     0.0352479  
C321     C      0.214840000000     0.162650000000     0.087010000000    -0.0869782  
C322     C      0.247540000000     0.134230000000     0.080630000000     0.0775574  
C323     C      0.210820000000     0.123870000000     0.051020000000     0.0752836  
C324     C      0.178000000000     0.153050000000     0.056770000000    -0.0899959  
C325     C      0.955220000000     0.387530000000     0.193030000000    -0.0864699  
C326     C      0.928460000000     0.349940000000     0.195270000000     0.0346262  
C327     C      0.916360000000     0.325710000000     0.178860000000    -0.0836968  
C328     C      0.932690000000     0.337870000000     0.160980000000     0.0725241  
C329     C      0.970490000000     0.399100000000     0.174890000000     0.0743924  
C330     C      0.914780000000     0.334620000000     0.214600000000     0.0356226  
C331     C      0.943550000000     0.335440000000     0.230230000000    -0.0892315  
C332     C      0.931480000000     0.315770000000     0.247630000000     0.0705262  
C333     C      0.862210000000     0.297890000000     0.234890000000     0.0753121  
C334     C      0.873560000000     0.316220000000     0.217300000000    -0.0905526  
C335     C      0.878920000000     0.510870000000     0.009860000000    -0.0888896  
C336     C      0.909940000000     0.477070000000     0.011820000000     0.0355654  
C337     C      0.931270000000     0.461680000000     0.995430000000    -0.0847776  
C338     C      0.922840000000     0.481730000000     0.977710000000     0.073864   
C339     C      0.870530000000     0.529310000000     0.991870000000     0.0749696  
C340     C      0.922760000000     0.460730000000     0.031040000000     0.0328536  
C341     C      0.933340000000     0.491320000000     0.045520000000    -0.0882448  
C342     C      0.950370000000     0.475890000000     0.062850000000     0.0694617  
C343     C      0.943730000000     0.400550000000     0.052340000000     0.0746965  
C344     C      0.927330000000     0.414890000000     0.034700000000    -0.0840668  
C345     C      0.178210000000     0.537110000000     0.865200000000    -0.0873446  
C346     C      0.166880000000     0.579890000000     0.871640000000     0.0359133  
C347     C      0.123870000000     0.594070000000     0.869370000000    -0.0873025  
C348     C      0.092740000000     0.564420000000     0.862000000000     0.0738366  
C349     C      0.146530000000     0.508690000000     0.857690000000     0.0743982  
C350     C      0.199670000000     0.608430000000     0.881410000000     0.0346612  
C351     C      0.227670000000     0.589720000000     0.895110000000    -0.0871038  
C352     C      0.259310000000     0.616240000000     0.903880000000     0.0730989  
C353     C      0.236120000000     0.679590000000     0.886030000000     0.0719598  
C354     C      0.203740000000     0.654090000000     0.877090000000    -0.0864107  
C355     C      0.180850000000     0.198350000000     0.298170000000    -0.0866731  
C356     C      0.182660000000     0.225700000000     0.314450000000     0.0359542  
C357     C      0.220770000000     0.226480000000     0.825370000000    -0.0872435  
C358     C      0.256250000000     0.200730000000     0.819820000000     0.0758829  
C359     C      0.216740000000     0.172210000000     0.293240000000     0.073325   
C360     C      0.146030000000     0.255290000000     0.819610000000     0.0363973  
C361     C      0.128830000000     0.285090000000     0.306100000000    -0.0870524  
C362     C      0.098320000000     0.316880000000     0.311760000000     0.0767709  
C363     C      0.098980000000     0.288080000000     0.843460000000     0.074935   
C364     C      0.130250000000     0.256420000000     0.838380000000    -0.0869957  
C365     C      0.965420000000     0.411330000000     0.934210000000    -0.085087   
C366     C      0.923600000000     0.394080000000     0.936670000000     0.038285   
C367     C      0.896870000000     0.389300000000     0.920520000000    -0.0864629  
C368     C      0.913490000000     0.398290000000     0.902240000000     0.0742133  
C369     C      0.980770000000     0.420250000000     0.915900000000     0.0762503  
C370     C      0.910540000000     0.376300000000     0.955660000000     0.0343662  
C371     C      0.939990000000     0.350160000000     0.966070000000    -0.0893481  
C372     C      0.927950000000     0.331400000000     0.983470000000     0.0717243  
C373     C      0.858400000000     0.364820000000     0.981140000000     0.0745026  
C374     C      0.869250000000     0.383750000000     0.963360000000    -0.085899   
C375     C      0.893520000000     0.459350000000     0.231870000000    -0.0872344  
C376     C      0.875270000000     0.479240000000     0.248100000000     0.0344781  
C377     C      0.844290000000     0.512930000000     0.245580000000    -0.0855692  
C378     C      0.834510000000     0.528290000000     0.227220000000     0.078667   
C379     C      0.883400000000     0.476030000000     0.213680000000     0.0783538  
C380     C      0.892270000000     0.468850000000     0.267450000000     0.0375888  
C381     C      0.900070000000     0.424650000000     0.273210000000    -0.0863816  
C382     C      0.919940000000     0.416330000000     0.290890000000     0.0739898  
C383     C      0.924440000000     0.494380000000     0.297140000000     0.0735721  
C384     C      0.903870000000     0.503830000000     0.279810000000    -0.0877131  
C385     C      0.057950000000     0.353300000000     0.336030000000     0.419438   
C386     C      0.956660000000     0.442730000000     0.818680000000     0.408895   
C387     C      0.973600000000     0.416570000000     0.382230000000     0.4198     
C388     C      0.072790000000     0.490880000000     0.351900000000     0.412401   
C389     C      0.075320000000     0.316830000000     0.598740000000     0.416841   
C390     C      0.977630000000     0.416720000000     0.582150000000     0.407456   
C391     C      0.981070000000     0.381200000000     0.642140000000     0.413644   
C392     C      0.097320000000     0.447000000000     0.618000000000     0.410528   
C393     C      0.811800000000     0.641570000000     0.433930000000     0.41531    
C394     C      0.887230000000     0.537270000000     0.458950000000     0.411107   
C395     C      0.864450000000     0.538680000000     0.393190000000     0.417073   
C396     C      0.948710000000     0.633740000000     0.417960000000     0.413826   
C397     C      0.780460000000     0.638620000000     0.664460000000     0.41067    
C398     C      0.850530000000     0.531750000000     0.694110000000     0.422902   
C399     C      0.829350000000     0.516640000000     0.632150000000     0.407388   
C400     C      0.911240000000     0.628240000000     0.649780000000     0.419929   
C401     C      0.913820000000     0.209810000000     0.552720000000     0.408365   
C402     C      0.835330000000     0.308360000000     0.571410000000     0.409873   
C403     C      0.875930000000     0.316210000000     0.507280000000     0.411424   
C404     C      0.789640000000     0.216110000000     0.522220000000     0.40476    
C405     C      0.925830000000     0.151130000000     0.801570000000     0.414102   
C406     C      0.851690000000     0.266420000000     0.825560000000     0.415962   
C407     C      0.881910000000     0.271490000000     0.765640000000     0.411143   
C408     C      0.796480000000     0.162480000000     0.784180000000     0.414646   
C409     C      0.634530000000     0.443750000000     0.469980000000     0.416941   
C410     C      0.741150000000     0.362740000000     0.448710000000     0.41298    
C411     C      0.742530000000     0.390830000000     0.510470000000     0.421049   
C412     C      0.633890000000     0.315690000000     0.491100000000     0.415481   
C413     C      0.676420000000     0.463730000000     0.725640000000     0.413797   
C414     C      0.778740000000     0.375980000000     0.705670000000     0.410628   
C415     C      0.774970000000     0.423830000000     0.768540000000     0.412244   
C416     C      0.674590000000     0.331520000000     0.745280000000     0.412677   
C417     C      0.423460000000     0.674330000000     0.432200000000     0.413825   
C418     C      0.337570000000     0.780640000000     0.453790000000     0.416108   
C419     C      0.390980000000     0.788570000000     0.393680000000     0.407494   
C420     C      0.296210000000     0.685670000000     0.407350000000     0.409435   
C421     C      0.322390000000     0.665630000000     0.653170000000     0.420443   
C422     C      0.407970000000     0.768790000000     0.631450000000     0.409334   
C423     C      0.380140000000     0.773080000000     0.694510000000     0.41452    
C424     C      0.452610000000     0.663190000000     0.673420000000     0.409412   
C425     C      0.574510000000     0.991750000000     0.483130000000     0.413921   
C426     C      0.474470000000     0.888670000000     0.504810000000     0.410027   
C427     C      0.466370000000     0.937160000000     0.446590000000     0.412192   
C428     C      0.584800000000     0.858830000000     0.466790000000     0.412725   
C429     C      0.560020000000     0.965130000000     0.742750000000     0.412413   
C430     C      0.468290000000     0.876360000000     0.763410000000     0.412033   
C431     C      0.443930000000     0.916550000000     0.702930000000     0.410333   
C432     C      0.559860000000     0.844690000000     0.711810000000     0.410216   
C433     C      0.416220000000     0.101090000000     0.536800000000     0.413266   
C434     C      0.338540000000     0.012730000000     0.507290000000     0.418512   
C435     C      0.368440000000     0.989910000000     0.572450000000     0.405868   
C436     C      0.280000000000     0.090940000000     0.556160000000     0.421281   
C437     C      0.289230000000     0.148180000000     0.799040000000     0.413234   
C438     C      0.365700000000     0.042850000000     0.822880000000     0.411668   
C439     C      0.344100000000     0.052030000000     0.757610000000     0.418864   
C440     C      0.429860000000     0.145580000000     0.786490000000     0.413733   
C441     C      0.157040000000     0.940240000000     0.336980000000     0.412798   
C442     C      0.278510000000     0.870790000000     0.818110000000     0.412084   
C443     C      0.268090000000     0.918460000000     0.376940000000     0.409755   
C444     C      0.177090000000     0.812660000000     0.359790000000     0.413666   
C445     C      0.128370000000     0.993250000000     0.599850000000     0.410893   
C446     C      0.226120000000     0.901870000000     0.573680000000     0.419203   
C447     C      0.237390000000     0.944970000000     0.634770000000     0.409988   
C448     C      0.129970000000     0.853310000000     0.615330000000     0.415276   
C449     C      0.299120000000     0.977410000000     0.720950000000    -0.0871248  
C450     C      0.316220000000     0.996550000000     0.704240000000     0.0370464  
C451     C      0.345310000000     0.032380000000     0.706020000000    -0.086027   
C452     C      0.355250000000     0.049510000000     0.724080000000     0.0760877  
C453     C      0.309500000000     0.995740000000     0.738830000000     0.0734735  
C454     C      0.300740000000     0.982060000000     0.685040000000     0.0355681  
C455     C      0.293440000000     0.936740000000     0.680910000000    -0.0833802  
C456     C      0.274040000000     0.924600000000     0.663530000000     0.0711193  
C457     C      0.270880000000     0.000820000000     0.653920000000     0.0725362  
C458     C      0.290390000000     0.014090000000     0.671050000000    -0.0866514  
C459     C      0.316370000000     0.940090000000     0.466160000000    -0.0876481  
C460     C      0.321790000000     0.970370000000     0.450950000000     0.0373645  
C461     C      0.335190000000     0.014130000000     0.455070000000    -0.087942   
C462     C      0.341130000000     0.027350000000     0.474000000000     0.0767732  
C463     C      0.322790000000     0.954550000000     0.485020000000     0.0732338  
C464     C      0.310780000000     0.957600000000     0.430990000000     0.0355321  
C465     C      0.321890000000     0.915520000000     0.423680000000    -0.0830875  
C466     C      0.309000000000     0.903710000000     0.405160000000     0.0713964  
C467     C      0.274920000000     0.974220000000     0.400890000000     0.0718942  
C468     C      0.287610000000     0.987310000000     0.419230000000    -0.0879987  
C469     C      0.349030000000     0.934750000000     0.618480000000    -0.0865499  
C470     C      0.387030000000     0.946490000000     0.628270000000     0.0349174  
C471     C      0.420700000000     0.966910000000     0.618150000000    -0.087278   
C472     C      0.414930000000     0.978040000000     0.598960000000     0.071813   
C473     C      0.343830000000     0.947590000000     0.599290000000     0.0712104  
C474     C      0.392120000000     0.939170000000     0.649070000000     0.0393208  
C475     C      0.403210000000     0.975270000000     0.660910000000    -0.0886721  
C476     C      0.417090000000     0.967340000000     0.679630000000     0.0735704  
C477     C      0.406010000000     0.889230000000     0.675600000000     0.0770987  
C478     C      0.391390000000     0.896020000000     0.656840000000    -0.0912299  
C479     C      0.357840000000     0.015060000000     0.373580000000    -0.0854776  
C480     C      0.391490000000     0.984110000000     0.375770000000     0.0355     
C481     C      0.413740000000     0.969900000000     0.359390000000    -0.0870005  
C482     C      0.403920000000     0.988900000000     0.341560000000     0.0712456  
C483     C      0.348060000000     0.032280000000     0.355530000000     0.0735539  
C484     C      0.405960000000     0.970130000000     0.395170000000     0.0385991  
C485     C      0.409920000000     0.001890000000     0.409860000000    -0.0874651  
C486     C      0.428470000000     0.989760000000     0.427360000000     0.0739514  
C487     C      0.436270000000     0.914730000000     0.416720000000     0.0736027  
C488     C      0.418500000000     0.925900000000     0.398910000000    -0.0886698  
C489     C      0.330320000000     0.843190000000     0.731240000000    -0.0876578  
C490     C      0.355540000000     0.831820000000     0.747280000000     0.0358952  
C491     C      0.391930000000     0.804690000000     0.744700000000    -0.0882401  
C492     C      0.401230000000     0.787690000000     0.726590000000     0.0797483  
C493     C      0.339870000000     0.824500000000     0.713390000000     0.0747804  
C494     C      0.341030000000     0.843850000000     0.766800000000     0.0365543  
C495     C      0.328270000000     0.887580000000     0.771210000000    -0.0860078  
C496     C      0.309750000000     0.896730000000     0.789030000000     0.071562   
C497     C      0.317120000000     0.820520000000     0.798230000000     0.0726577  
C498     C      0.336670000000     0.810480000000     0.780780000000    -0.0854592  
C499     C      0.428830000000     0.886740000000     0.553020000000    -0.0873581  
C500     C      0.432170000000     0.841040000000     0.557410000000     0.034078   
C501     C      0.443740000000     0.811280000000     0.542810000000    -0.088087   
C502     C      0.455290000000     0.827710000000     0.524840000000     0.0712877  
C503     C      0.440490000000     0.902070000000     0.534800000000     0.074443   
C504     C      0.426640000000     0.824430000000     0.577330000000     0.035805   
C505     C      0.455600000000     0.792760000000     0.584810000000    -0.0869732  
C506     C      0.449640000000     0.775830000000     0.603210000000     0.0742238  
C507     C      0.387740000000     0.821720000000     0.607400000000     0.0729879  
C508     C      0.393040000000     0.839740000000     0.589020000000    -0.0864526  
C509     C      0.303870000000     0.851200000000     0.540620000000    -0.0859163  
C510     C      0.283930000000     0.860420000000     0.522990000000     0.0387119  
C511     C      0.246780000000     0.887220000000     0.522690000000    -0.0862785  
C512     C      0.228880000000     0.902090000000     0.539800000000     0.0779984  
C513     C      0.284690000000     0.866310000000     0.557580000000     0.077933   
C514     C      0.299070000000     0.839400000000     0.505030000000     0.0343432  
C515     C      0.342440000000     0.841890000000     0.499260000000    -0.0886875  
C516     C      0.354780000000     0.823210000000     0.481710000000     0.0709498  
C517     C      0.282810000000     0.797910000000     0.476170000000     0.0722952  
C518     C      0.269220000000     0.817180000000     0.493240000000    -0.0887099  
C519     C      0.416510000000     0.885870000000     0.810310000000    -0.0856632  
C520     C      0.433950000000     0.848530000000     0.819810000000     0.0364264  
C521     C      0.460280000000     0.819180000000     0.809450000000    -0.0877835  
C522     C      0.470050000000     0.828290000000     0.790390000000     0.0731113  
C523     C      0.427530000000     0.894380000000     0.791230000000     0.0758166  
C524     C      0.424180000000     0.839090000000     0.340230000000     0.0307391  
C525     C      0.456130000000     0.821550000000     0.352480000000    -0.0863039  
C526     C      0.445030000000     0.806950000000     0.370830000000     0.0694491  
C527     C      0.372240000000     0.829380000000     0.365710000000     0.0663033  
C528     C      0.382220000000     0.844560000000     0.347350000000    -0.0814778  
C529     C      0.506030000000     0.566510000000     0.695320000000    -0.0868115  
C530     C      0.549530000000     0.580080000000     0.695100000000     0.0361551  
C531     C      0.559950000000     0.621350000000     0.686720000000    -0.0877701  
C532     C      0.527180000000     0.648550000000     0.679260000000     0.0740739  
C533     C      0.474100000000     0.594370000000     0.687620000000     0.0741576  
C534     C      0.583790000000     0.551330000000     0.703630000000     0.0356783  
C535     C      0.576520000000     0.528390000000     0.720850000000    -0.0869581  
C536     C      0.608420000000     0.500160000000     0.728330000000     0.0753614  
C537     C      0.655050000000     0.517640000000     0.702430000000     0.0747161  
C538     C      0.623910000000     0.546220000000     0.694560000000    -0.0860262  
C539     C      0.572330000000     0.269880000000     0.745930000000    -0.0873826  
C540     C      0.576310000000     0.245060000000     0.762900000000     0.0355842  
C541     C      0.615700000000     0.246760000000     0.772960000000    -0.0854194  
C542     C      0.649060000000     0.274840000000     0.766530000000     0.0730706  
C543     C      0.606240000000     0.297330000000     0.739910000000     0.0752308  
C544     C      0.538620000000     0.219350000000     0.770290000000     0.03572    
C545     C      0.497120000000     0.238250000000     0.769650000000    -0.0870662  
C546     C      0.461350000000     0.213470000000     0.775670000000     0.0748579  
C547     C      0.506600000000     0.151950000000     0.783640000000     0.072942   
C548     C      0.543300000000     0.175950000000     0.777740000000    -0.0859058  
C549     C      0.502710000000     0.583620000000     0.428890000000    -0.0869863  
C550     C      0.515890000000     0.579130000000     0.448040000000     0.0357639  
C551     C      0.497980000000     0.608010000000     0.461680000000    -0.0863666  
C552     C      0.467290000000     0.639890000000     0.456100000000     0.0741741  
C553     C      0.471970000000     0.615890000000     0.423810000000     0.074957   
C554     C      0.547370000000     0.543840000000     0.453800000000     0.0358784  
C555     C      0.544970000000     0.500910000000     0.445760000000    -0.0870279  
C556     C      0.574380000000     0.467900000000     0.451390000000     0.0752446  
C557     C      0.608700000000     0.518560000000     0.472790000000     0.07426    
C558     C      0.579730000000     0.552440000000     0.467500000000    -0.0864865  
C559     C      0.473080000000     0.205160000000     0.525630000000    -0.0868265  
C560     C      0.513080000000     0.189200000000     0.519100000000     0.0357596  
C561     C      0.520410000000     0.142870000000     0.519280000000    -0.0867129  
C562     C      0.487980000000     0.113730000000     0.525670000000     0.0749388  
C563     C      0.441570000000     0.175210000000     0.531990000000     0.075379   
C564     C      0.546570000000     0.221070000000     0.512110000000     0.0355442  
C565     C      0.572350000000     0.211160000000     0.496150000000    -0.0884404  
C566     C      0.601860000000     0.243030000000     0.489310000000     0.0734     
C567     C      0.581350000000     0.293650000000     0.513800000000     0.0761836  
C568     C      0.552000000000     0.262630000000     0.521090000000    -0.0886838  
C569     C      0.983350000000     0.059300000000     0.325270000000    -0.0868485  
C570     C      0.022990000000     0.059590000000     0.815560000000     0.0356629  
C571     C      0.028860000000     0.090530000000     0.800660000000    -0.0865615  
C572     C      0.995800000000     0.120650000000     0.796000000000     0.0736544  
C573     C      0.950970000000     0.089760000000     0.320190000000     0.0742351  
C574     C      0.058130000000     0.028120000000     0.321140000000     0.0358759  
C575     C      0.067210000000     0.019590000000     0.340500000000    -0.0868541  
C576     C      0.100410000000     0.990040000000     0.345540000000     0.074398   
C577     C      0.115790000000     0.976840000000     0.812770000000     0.0742811  
C578     C      0.082940000000     0.006360000000     0.807220000000    -0.0865121  
C579     C      0.639690000000     0.022120000000     0.773110000000    -0.0872312  
C580     C      0.653280000000     0.056940000000     0.761090000000     0.0349678  
C581     C      0.633290000000     0.061820000000     0.743150000000    -0.087308   
C582     C      0.601070000000     0.031560000000     0.737430000000     0.0741402  
C583     C      0.607920000000     0.992100000000     0.766820000000     0.073921   
C584     C      0.689740000000     0.086440000000     0.766910000000     0.0354713  
C585     C      0.691270000000     0.105480000000     0.785220000000    -0.088067   
C586     C      0.727100000000     0.131250000000     0.790730000000     0.0735978  
C587     C      0.759960000000     0.119390000000     0.760510000000     0.074819   
C588     C      0.724400000000     0.094000000000     0.754440000000    -0.0868739  
C589     C      0.779740000000     0.375010000000     0.399720000000    -0.0884104  
C590     C      0.801210000000     0.334330000000     0.396980000000     0.0324752  
C591     C      0.804830000000     0.304520000000     0.412450000000    -0.0877615  
C592     C      0.785590000000     0.315040000000     0.429950000000     0.0710311  
C593     C      0.761640000000     0.384790000000     0.417450000000     0.0717578  
C594     C      0.817320000000     0.321790000000     0.377790000000     0.035271   
C595     C      0.791310000000     0.328480000000     0.361540000000    -0.0887926  
C596     C      0.804410000000     0.311680000000     0.343870000000     0.0723048  
C597     C      0.869650000000     0.284460000000     0.357720000000     0.0756258  
C598     C      0.857460000000     0.300670000000     0.375650000000    -0.0869148  
C599     C      0.027610000000     0.057040000000     0.596320000000    -0.086384   
C600     C      0.039410000000     0.091530000000     0.583700000000     0.0352468  
C601     C      0.082750000000     0.094190000000     0.577830000000    -0.0858203  
C602     C      0.112590000000     0.061900000000     0.583940000000     0.0730377  
C603     C      0.058150000000     0.025170000000     0.602010000000     0.0727071  
C604     C      0.006280000000     0.123160000000     0.576010000000     0.0358198  
C605     C      0.964470000000     0.107920000000     0.571420000000    -0.0861322  
C606     C      0.933940000000     0.137430000000     0.563720000000     0.0734036  
C607     C      0.984920000000     0.196980000000     0.564860000000     0.0740715  
C608     C      0.016250000000     0.168400000000     0.572670000000    -0.0864448  
C609     C      0.736260000000     0.124010000000     0.496750000000    -0.0856157  
C610     C      0.692930000000     0.129990000000     0.502060000000     0.0354237  
C611     C      0.682370000000     0.167070000000     0.513420000000    -0.0855738  
C612     C      0.714980000000     0.196520000000     0.519530000000     0.0751842  
C613     C      0.768070000000     0.153680000000     0.503340000000     0.0746735  
C614     C      0.659590000000     0.096210000000     0.496600000000     0.0347547  
C615     C      0.658210000000     0.078220000000     0.478070000000    -0.0873238  
C616     C      0.628810000000     0.043950000000     0.473660000000     0.0723267  
C617     C      0.601670000000     0.045250000000     0.505380000000     0.0710115  
C618     C      0.630410000000     0.079750000000     0.510230000000    -0.0888595  
C619     C      0.797800000000     0.318380000000     0.660600000000    -0.0885232  
C620     C      0.815090000000     0.352830000000     0.649290000000     0.0343808  
C621     C      0.825530000000     0.393690000000     0.658100000000    -0.0836679  
C622     C      0.815440000000     0.400260000000     0.677470000000     0.0732287  
C623     C      0.787560000000     0.326290000000     0.679650000000     0.069318   
C624     C      0.819280000000     0.346040000000     0.628290000000     0.0352919  
C625     C      0.855310000000     0.361400000000     0.617990000000    -0.0826987  
C626     C      0.859510000000     0.350180000000     0.598570000000     0.0733326  
C627     C      0.792480000000     0.311140000000     0.599320000000     0.0706417  
C628     C      0.787000000000     0.322160000000     0.618470000000    -0.0877167  
C629     C      0.726840000000     0.739460000000     0.681930000000    -0.0871822  
C630     C      0.683140000000     0.728910000000     0.678830000000     0.0360999  
C631     C      0.672820000000     0.688510000000     0.669640000000    -0.0871535  
C632     C      0.705900000000     0.659060000000     0.664350000000     0.0728488  
C633     C      0.758960000000     0.709320000000     0.676510000000     0.0751434  
C634     C      0.648760000000     0.759120000000     0.686060000000     0.0354523  
C635     C      0.613180000000     0.741840000000     0.696070000000    -0.0854257  
C636     C      0.583160000000     0.770940000000     0.704290000000     0.0748345  
C637     C      0.622100000000     0.833810000000     0.692530000000     0.0733585  
C638     C      0.652660000000     0.805690000000     0.684120000000    -0.0863062  
C639     C      0.058560000000     0.780970000000     0.643530000000    -0.0865265  
C640     C      0.043870000000     0.750590000000     0.629650000000     0.0356484  
C641     C      0.059950000000     0.754500000000     0.610970000000    -0.0864269  
C642     C      0.089390000000     0.788610000000     0.606480000000     0.0731489  
C643     C      0.087760000000     0.814820000000     0.638520000000     0.0747374  
C644     C      0.010560000000     0.716330000000     0.634490000000     0.0361098  
C645     C      0.012420000000     0.692590000000     0.651830000000    -0.0865924  
C646     C      0.979370000000     0.662440000000     0.656570000000     0.0748336  
C647     C      0.942970000000     0.678250000000     0.627340000000     0.0757014  
C648     C      0.975550000000     0.708360000000     0.622100000000    -0.0867819  
C649     C      0.765550000000     0.389120000000     0.561560000000    -0.0870397  
C650     C      0.792610000000     0.426450000000     0.563480000000     0.0368322  
C651     C      0.806530000000     0.448740000000     0.546910000000    -0.0872025  
C652     C      0.790900000000     0.435290000000     0.529010000000     0.0771778  
C653     C      0.752080000000     0.375450000000     0.543430000000     0.0772316  
C654     C      0.803610000000     0.444320000000     0.582660000000     0.0387448  
C655     C      0.771460000000     0.449600000000     0.596570000000    -0.0864101  
C656     C      0.781100000000     0.472280000000     0.613540000000     0.0729707  
C657     C      0.854280000000     0.481210000000     0.603910000000     0.0723833  
C658     C      0.845600000000     0.459140000000     0.586730000000    -0.0902607  
C659     C      0.704400000000     0.693790000000     0.436250000000    -0.0862759  
C660     C      0.712950000000     0.730850000000     0.448040000000     0.0360144  
C661     C      0.755260000000     0.737190000000     0.454840000000    -0.0872084  
C662     C      0.787810000000     0.707050000000     0.449870000000     0.0759877  
C663     C      0.737800000000     0.664010000000     0.431650000000     0.0736512  
C664     C      0.678290000000     0.763260000000     0.453100000000     0.0354426  
C665     C      0.648950000000     0.778650000000     0.439220000000    -0.0860761  
C666     C      0.617890000000     0.810690000000     0.444060000000     0.0740252  
C667     C      0.643440000000     0.811950000000     0.476150000000     0.0736635  
C668     C      0.675100000000     0.780170000000     0.471770000000    -0.0864569  
C669     C      0.011990000000     0.715750000000     0.391300000000    -0.0881259  
C670     C      0.054140000000     0.699640000000     0.393810000000     0.0354237  
C671     C      0.060860000000     0.662570000000     0.405820000000    -0.0884577  
C672     C      0.025240000000     0.641190000000     0.414260000000     0.0736106  
C673     C      0.977480000000     0.694220000000     0.400170000000     0.0766455  
C674     C      0.090430000000     0.722720000000     0.384100000000     0.0324926  
C675     C      0.086830000000     0.734450000000     0.364720000000    -0.0889948  
C676     C      0.117600000000     0.762710000000     0.356450000000     0.0716159  
C677     C      0.156730000000     0.765730000000     0.385760000000     0.070241   
C678     C      0.126760000000     0.737110000000     0.394450000000    -0.0870161  
C679     C      0.863930000000     0.518480000000     0.341760000000    -0.0848411  
C680     C      0.840540000000     0.478400000000     0.340490000000     0.0355575  
C681     C      0.829110000000     0.456200000000     0.357450000000    -0.0846718  
C682     C      0.838490000000     0.476080000000     0.375190000000     0.0733836  
C683     C      0.872930000000     0.537080000000     0.359580000000     0.0738823  
C684     C      0.824480000000     0.463060000000     0.821550000000     0.03791    
C685     C      0.805410000000     0.494120000000     0.809080000000    -0.088514   
C686     C      0.789480000000     0.480300000000     0.791390000000     0.073841   
C687     C      0.811430000000     0.405530000000     0.797730000000     0.0732936  
C688     C      0.827250000000     0.418200000000     0.815800000000    -0.0853839  
C689     C      0.229590000000     0.589460000000     0.656860000000    -0.0870276  
C690     C      0.225540000000     0.574570000000     0.637900000000     0.0360166  
C691     C      0.253910000000     0.591800000000     0.624130000000    -0.0870622  
C692     C      0.285940000000     0.622500000000     0.629490000000     0.0742502  
C693     C      0.261670000000     0.620690000000     0.661680000000     0.0745277  
C694     C      0.192220000000     0.540860000000     0.632540000000     0.0356633  
C695     C      0.186030000000     0.502390000000     0.643720000000    -0.0866844  
C696     C      0.154670000000     0.470850000000     0.638420000000     0.0741725  
C697     C      0.135130000000     0.514730000000     0.611370000000     0.0737472  
C698     C      0.166570000000     0.546670000000     0.616120000000    -0.0864045  
C699     C      0.130750000000     0.208520000000     0.598920000000    -0.0890302  
C700     C      0.148600000000     0.208070000000     0.580510000000     0.0332279  
C701     C      0.138990000000     0.243360000000     0.567980000000    -0.088464   
C702     C      0.113770000000     0.279150000000     0.574260000000     0.0730461  
C703     C      0.105120000000     0.244630000000     0.604650000000     0.0721406  
C704     C      0.180140000000     0.173220000000     0.574860000000     0.0352358  
C705     C      0.214840000000     0.162640000000     0.587010000000    -0.0869766  
C706     C      0.247540000000     0.134230000000     0.580630000000     0.0775717  
C707     C      0.210820000000     0.123860000000     0.551020000000     0.0753024  
C708     C      0.178000000000     0.153040000000     0.556770000000    -0.0899615  
C709     C      0.955240000000     0.387530000000     0.693030000000    -0.086532   
C710     C      0.928470000000     0.349940000000     0.695270000000     0.034671   
C711     C      0.916370000000     0.325710000000     0.678860000000    -0.0838287  
C712     C      0.932700000000     0.337880000000     0.660990000000     0.0726556  
C713     C      0.970500000000     0.399100000000     0.674890000000     0.0744423  
C714     C      0.914790000000     0.334630000000     0.714600000000     0.0355856  
C715     C      0.943560000000     0.335430000000     0.730240000000    -0.0892166  
C716     C      0.931490000000     0.315760000000     0.747630000000     0.0705382  
C717     C      0.862220000000     0.297900000000     0.734900000000     0.0754219  
C718     C      0.873570000000     0.316230000000     0.717300000000    -0.0906337  
C719     C      0.878930000000     0.510870000000     0.509860000000    -0.0882692  
C720     C      0.909950000000     0.477070000000     0.511820000000     0.0362211  
C721     C      0.931270000000     0.461670000000     0.495440000000    -0.0855314  
C722     C      0.922840000000     0.481720000000     0.477710000000     0.0739364  
C723     C      0.870530000000     0.529310000000     0.491870000000     0.0742893  
C724     C      0.922760000000     0.460730000000     0.531040000000     0.0327348  
C725     C      0.933350000000     0.491310000000     0.545520000000    -0.0881118  
C726     C      0.950380000000     0.475890000000     0.562850000000     0.0694811  
C727     C      0.943730000000     0.400540000000     0.552340000000     0.0745656  
C728     C      0.927330000000     0.414890000000     0.534700000000    -0.0839062  
C729     C      0.178210000000     0.537100000000     0.365200000000    -0.0873364  
C730     C      0.166880000000     0.579890000000     0.371650000000     0.035864   
C731     C      0.123870000000     0.594060000000     0.369370000000    -0.0872691  
C732     C      0.092740000000     0.564420000000     0.362000000000     0.0737897  
C733     C      0.146530000000     0.508680000000     0.357700000000     0.0744071  
C734     C      0.199670000000     0.608430000000     0.381410000000     0.0346526  
C735     C      0.227660000000     0.589720000000     0.395110000000    -0.0870153  
C736     C      0.259310000000     0.616240000000     0.403890000000     0.0730196  
C737     C      0.236120000000     0.679580000000     0.386030000000     0.0719206  
C738     C      0.203740000000     0.654090000000     0.377090000000    -0.0864319  
C739     C      0.180840000000     0.198340000000     0.798170000000    -0.0867746  
C740     C      0.182650000000     0.225700000000     0.814450000000     0.0359333  
C741     C      0.220770000000     0.226470000000     0.325370000000    -0.087232   
C742     C      0.256250000000     0.200730000000     0.319820000000     0.076      
C743     C      0.216740000000     0.172210000000     0.793250000000     0.0735333  
C744     C      0.146040000000     0.255290000000     0.319610000000     0.0363143  
C745     C      0.128830000000     0.285090000000     0.806100000000    -0.0871198  
C746     C      0.098320000000     0.316880000000     0.811760000000     0.0767987  
C747     C      0.098970000000     0.288070000000     0.343460000000     0.0748208  
C748     C      0.130250000000     0.256420000000     0.338380000000    -0.0868409  
C749     C      0.965410000000     0.411330000000     0.434200000000    -0.0849806  
C750     C      0.923600000000     0.394080000000     0.436670000000     0.0381956  
C751     C      0.896870000000     0.389300000000     0.420510000000    -0.0864087  
C752     C      0.913490000000     0.398280000000     0.402240000000     0.0742646  
C753     C      0.980770000000     0.420260000000     0.415900000000     0.0761861  
C754     C      0.910530000000     0.376300000000     0.455660000000     0.0343496  
C755     C      0.939990000000     0.350160000000     0.466070000000    -0.0893083  
C756     C      0.927950000000     0.331400000000     0.483470000000     0.0715734  
C757     C      0.858400000000     0.364820000000     0.481140000000     0.0744815  
C758     C      0.869250000000     0.383740000000     0.463360000000    -0.0859024  
C759     C      0.893530000000     0.459350000000     0.731870000000    -0.0872712  
C760     C      0.875270000000     0.479230000000     0.748100000000     0.0344874  
C761     C      0.844290000000     0.512920000000     0.745580000000    -0.0855937  
C762     C      0.834510000000     0.528280000000     0.727220000000     0.0786459  
C763     C      0.883400000000     0.476020000000     0.713680000000     0.0784     
C764     C      0.892270000000     0.468840000000     0.767450000000     0.0375818  
C765     C      0.900070000000     0.424640000000     0.773210000000    -0.0864031  
C766     C      0.919940000000     0.416330000000     0.790890000000     0.0740061  
C767     C      0.924430000000     0.494370000000     0.797150000000     0.0736244  
C768     C      0.903870000000     0.503830000000     0.779810000000    -0.0877404  
H1       H      0.359750000000     0.047730000000     0.193510000000     0.05178    
H2       H      0.377380000000     0.077770000000     0.224790000000     0.0314335  
H3       H      0.294220000000     0.981430000000     0.251390000000     0.0259658  
H4       H      0.276180000000     0.949920000000     0.220210000000     0.0513486  
H5       H      0.301910000000     0.910920000000     0.191170000000     0.0529483  
H6       H      0.267870000000     0.889290000000     0.161000000000     0.0323899  
H7       H      0.262050000000     0.026770000000     0.143730000000     0.0299806  
H8       H      0.295380000000     0.049530000000     0.173640000000     0.0528242  
H9       H      0.340650000000     0.038290000000     0.943730000000     0.051473   
H10      H      0.351050000000     0.061750000000     0.976540000000     0.0318043  
H11      H      0.317020000000     0.931050000000     0.996520000000     0.0283571  
H12      H      0.305610000000     0.906020000000     0.963590000000     0.0560482  
H13      H      0.340290000000     0.891810000000     0.932220000000     0.0536267  
H14      H      0.317530000000     0.870620000000     0.900090000000     0.039716   
H15      H      0.256060000000     0.997730000000     0.892430000000     0.0299584  
H16      H      0.277970000000     0.020030000000     0.924360000000     0.0524163  
H17      H      0.451060000000     0.975210000000     0.125190000000     0.0549886  
H18      H      0.441430000000     0.995030000000     0.091790000000     0.0316037  
H19      H      0.313170000000     0.940400000000     0.092310000000     0.0297602  
H20      H      0.323080000000     0.917410000000     0.125760000000     0.0598558  
H21      H      0.403270000000     0.009260000000     0.155400000000     0.0538711  
H22      H      0.427680000000     0.995910000000     0.188040000000     0.0293823  
H23      H      0.408110000000     0.855100000000     0.180750000000     0.025471   
H24      H      0.382600000000     0.867500000000     0.148080000000     0.0644271  
H25      H      0.440230000000     0.946240000000     0.860460000000     0.054621   
H26      H      0.423370000000     0.979170000000     0.829370000000     0.0282662  
H27      H      0.322270000000     0.056860000000     0.854570000000     0.0327957  
H28      H      0.339960000000     0.027080000000     0.885830000000     0.0531181  
H29      H      0.400700000000     0.036520000000     0.907590000000     0.0523306  
H30      H      0.432490000000     0.015650000000     0.938120000000     0.0288575  
H31      H      0.446520000000     0.880360000000     0.918950000000     0.0317245  
H32      H      0.415250000000     0.900300000000     0.888040000000     0.0574134  
H33      H      0.412310000000     0.795420000000     0.256750000000     0.0564829  
H34      H      0.429150000000     0.765890000000     0.225290000000     0.0343242  
H35      H      0.318510000000     0.832110000000     0.201450000000     0.0254354  
H36      H      0.301880000000     0.864140000000     0.232690000000     0.0516115  
H37      H      0.332140000000     0.914280000000     0.260860000000     0.0564432  
H38      H      0.299330000000     0.930790000000     0.291830000000     0.0334571  
H39      H      0.312790000000     0.793440000000     0.808430000000     0.0291557  
H40      H      0.346300000000     0.776240000000     0.277910000000     0.0542965  
H41      H      0.445270000000     0.775500000000     0.045430000000     0.0534207  
H42      H      0.465730000000     0.803720000000     0.014170000000     0.0307787  
H43      H      0.439450000000     0.937900000000     0.032140000000     0.0300557  
H44      H      0.419700000000     0.910750000000     0.063860000000     0.0573512  
H45      H      0.482810000000     0.780960000000     0.076470000000     0.0543297  
H46      H      0.472470000000     0.750850000000     0.108310000000     0.0322695  
H47      H      0.360530000000     0.833210000000     0.115840000000     0.0282509  
H48      H      0.370340000000     0.864500000000     0.083800000000     0.0551966  
H49      H      0.231010000000     0.895770000000     0.009270000000     0.0538193  
H50      H      0.199530000000     0.921970000000     0.038940000000     0.0313978  
H51      H      0.299640000000     0.857000000000     0.071070000000     0.0251781  
H52      H      0.332770000000     0.830680000000     0.041370000000     0.0556205  
H53      H      0.366270000000     0.859170000000     0.007990000000     0.0571929  
H54      H      0.388470000000     0.826080000000     0.977510000000     0.0311495  
H55      H      0.258650000000     0.780690000000     0.967540000000     0.0299425  
H56      H      0.235480000000     0.814230000000     0.997320000000     0.0540933  
H57      H      0.473220000000     0.789060000000     0.816000000000     0.0534498  
H58      H      0.490930000000     0.804870000000     0.282990000000     0.0307834  
H59      H      0.414590000000     0.924320000000     0.284490000000     0.0316017  
H60      H      0.395130000000     0.908800000000     0.317630000000     0.0553934  
H61      H      0.489330000000     0.817960000000     0.847750000000     0.0527773  
H62      H      0.470220000000     0.792130000000     0.879670000000     0.0303725  
H63      H      0.338870000000     0.831460000000     0.870230000000     0.0454904  
H64      H      0.356630000000     0.858120000000     0.338460000000     0.051562   
H65      H      0.593160000000     0.632940000000     0.186300000000     0.0491328  
H66      H      0.536460000000     0.680640000000     0.173180000000     0.0310376  
H67      H      0.440770000000     0.582840000000     0.188190000000     0.0307941  
H68      H      0.496630000000     0.534440000000     0.201320000000     0.0535096  
H69      H      0.546330000000     0.532170000000     0.228550000000     0.0535584  
H70      H      0.601360000000     0.482480000000     0.241550000000     0.0308376  
H71      H      0.685380000000     0.513870000000     0.194800000000     0.0336994  
H72      H      0.630870000000     0.563220000000     0.181200000000     0.0541997  
H73      H      0.620150000000     0.227930000000     0.286100000000     0.053734   
H74      H      0.678630000000     0.276450000000     0.274970000000     0.0333996  
H75      H      0.601380000000     0.316760000000     0.226930000000     0.0311951  
H76      H      0.542830000000     0.268660000000     0.237460000000     0.0538116  
H77      H      0.492170000000     0.272100000000     0.264440000000     0.0538967  
H78      H      0.429750000000     0.229200000000     0.274650000000     0.0313213  
H79      H      0.511190000000     0.118050000000     0.288890000000     0.0305666  
H80      H      0.574850000000     0.160140000000     0.278500000000     0.0531158  
H81      H      0.506860000000     0.605430000000     0.976670000000     0.0536429  
H82      H      0.453880000000     0.661320000000     0.967110000000     0.0314024  
H83      H      0.462520000000     0.618200000000     0.908850000000     0.0308061  
H84      H      0.516200000000     0.562480000000     0.917820000000     0.0533568  
H85      H      0.520090000000     0.492530000000     0.935360000000     0.0536104  
H86      H      0.571290000000     0.435090000000     0.944840000000     0.0308118  
H87      H      0.633400000000     0.526480000000     0.983370000000     0.0311383  
H88      H      0.583060000000     0.585290000000     0.973940000000     0.0536447  
H89      H      0.551000000000     0.129190000000     0.014600000000     0.0526584  
H90      H      0.494620000000     0.078050000000     0.025430000000     0.0346491  
H91      H      0.410900000000     0.188980000000     0.036690000000     0.031521   
H92      H      0.465610000000     0.240620000000     0.025470000000     0.053662   
H93      H      0.569150000000     0.179470000000     0.988720000000     0.0546213  
H94      H      0.621070000000     0.234510000000     0.976870000000     0.030867   
H95      H      0.584160000000     0.325550000000     0.021150000000     0.0319008  
H96      H      0.533650000000     0.271360000000     0.033730000000     0.0533235  
H97      H      0.059160000000     0.092160000000     0.292900000000     0.0531497  
H98      H      0.001730000000     0.144490000000     0.284550000000     0.0305714  
H99      H      0.920840000000     0.088590000000     0.828120000000     0.0305906  
H100     H      0.977210000000     0.035510000000     0.836690000000     0.0533572  
H101     H      0.049200000000     0.036150000000     0.851720000000     0.0535523  
H102     H      0.106590000000     0.984510000000     0.860660000000     0.0309872  
H103     H      0.134220000000     0.960550000000     0.301580000000     0.031402   
H104     H      0.076700000000     0.011650000000     0.292100000000     0.0535927  
H105     H      0.642720000000     0.088660000000     0.233550000000     0.0540632  
H106     H      0.586620000000     0.036020000000     0.223370000000     0.031537   
H107     H      0.598940000000     0.964960000000     0.276380000000     0.0308282  
H108     H      0.654550000000     0.017130000000     0.287040000000     0.0539556  
H109     H      0.664910000000     0.100540000000     0.295210000000     0.052064   
H110     H      0.727190000000     0.145510000000     0.305020000000     0.0301258  
H111     H      0.786400000000     0.124090000000     0.250510000000     0.0313746  
H112     H      0.724570000000     0.079440000000     0.240230000000     0.0542399  
H113     H      0.820990000000     0.272540000000     0.910870000000     0.0539957  
H114     H      0.787930000000     0.290760000000     0.941490000000     0.030241   
H115     H      0.744730000000     0.416440000000     0.918890000000     0.0323011  
H116     H      0.776230000000     0.398880000000     0.888130000000     0.0505229  
H117     H      0.760060000000     0.344770000000     0.862580000000     0.0529459  
H118     H      0.782730000000     0.316090000000     0.331740000000     0.0300061  
H119     H      0.900380000000     0.267060000000     0.856690000000     0.0311764  
H120     H      0.878890000000     0.295840000000     0.887820000000     0.0537348  
H121     H      0.093240000000     0.120010000000     0.067980000000     0.0528369  
H122     H      0.145560000000     0.064490000000     0.078710000000     0.0337016  
H123     H      0.047440000000     0.998460000000     0.111450000000     0.0305979  
H124     H      0.994780000000     0.054250000000     0.101630000000     0.0530753  
H125     H      0.955450000000     0.073120000000     0.073380000000     0.0532955  
H126     H      0.902060000000     0.124200000000     0.060290000000     0.0313751  
H127     H      0.993850000000     0.231750000000     0.062510000000     0.0340051  
H128     H      0.047940000000     0.181850000000     0.076180000000     0.0560549  
H129     H      0.649190000000     0.173100000000     0.017700000000     0.0538573  
H130     H      0.705650000000     0.224580000000     0.028470000000     0.0347207  
H131     H      0.801360000000     0.147240000000     0.999280000000     0.0325434  
H132     H      0.745860000000     0.095610000000     0.988110000000     0.0533407  
H133     H      0.679970000000     0.090320000000     0.967070000000     0.0539726  
H134     H      0.629040000000     0.030550000000     0.959230000000     0.0296976  
H135     H      0.580080000000     0.032950000000     0.016430000000     0.030848   
H136     H      0.630590000000     0.092510000000     0.024750000000     0.0532744  
H137     H      0.839430000000     0.421040000000     0.149950000000     0.0550573  
H138     H      0.822200000000     0.432820000000     0.183680000000     0.031371   
H139     H      0.772580000000     0.299180000000     0.187630000000     0.0283078  
H140     H      0.790870000000     0.285640000000     0.154610000000     0.0525212  
H141     H      0.880770000000     0.380450000000     0.124970000000     0.0551598  
H142     H      0.888370000000     0.361260000000     0.091110000000     0.0319591  
H143     H      0.767190000000     0.291450000000     0.092480000000     0.0295382  
H144     H      0.757770000000     0.311130000000     0.125630000000     0.0528851  
H145     H      0.639430000000     0.679620000000     0.166630000000     0.051043   
H146     H      0.696750000000     0.627700000000     0.157590000000     0.0295069  
H147     H      0.792360000000     0.718390000000     0.179550000000     0.0313397  
H148     H      0.736210000000     0.770200000000     0.189100000000     0.0539557  
H149     H      0.609410000000     0.706130000000     0.198190000000     0.0522324  
H150     H      0.556460000000     0.756350000000     0.212220000000     0.0345689  
H151     H      0.626560000000     0.869700000000     0.190930000000     0.0303643  
H152     H      0.679440000000     0.820380000000     0.176310000000     0.0534095  
H153     H      0.049820000000     0.731390000000     0.099850000000     0.0531528  
H154     H      0.100860000000     0.790770000000     0.091840000000     0.029581   
H155     H      0.097800000000     0.838090000000     0.149620000000     0.0315708  
H156     H      0.046650000000     0.779470000000     0.158090000000     0.0538635  
H157     H      0.039200000000     0.697360000000     0.161710000000     0.053667   
H158     H      0.981710000000     0.645010000000     0.170180000000     0.0301376  
H159     H      0.916050000000     0.673640000000     0.117490000000     0.0305703  
H160     H      0.972600000000     0.726270000000     0.108640000000     0.0536242  
H161     H      0.827350000000     0.477930000000     0.047860000000     0.0528994  
H162     H      0.800500000000     0.454470000000     0.016520000000     0.0285879  
H163     H      0.730460000000     0.346780000000     0.042590000000     0.0352219  
H164     H      0.753960000000     0.371170000000     0.074000000000     0.0561535  
H165     H      0.738540000000     0.438350000000     0.093990000000     0.0541402  
H166     H      0.755080000000     0.477360000000     0.123700000000     0.0311964  
H167     H      0.887040000000     0.493280000000     0.106330000000     0.0313782  
H168     H      0.871270000000     0.454330000000     0.076510000000     0.0588681  
H169     H      0.763450000000     0.765710000000     0.963750000000     0.0539331  
H170     H      0.820140000000     0.713390000000     0.955410000000     0.0324588  
H171     H      0.730020000000     0.635580000000     0.922590000000     0.0297429  
H172     H      0.672020000000     0.687510000000     0.930790000000     0.0536866  
H173     H      0.650550000000     0.766790000000     0.924580000000     0.0537856  
H174     H      0.596030000000     0.822080000000     0.932860000000     0.0326089  
H175     H      0.642030000000     0.824260000000     0.990740000000     0.0302117  
H176     H      0.696820000000     0.768800000000     0.983000000000     0.0534892  
H177     H      0.093180000000     0.649580000000     0.908260000000     0.0529508  
H178     H      0.031180000000     0.611770000000     0.923020000000     0.0297965  
H179     H      0.945290000000     0.707610000000     0.897630000000     0.0328974  
H180     H      0.005660000000     0.745030000000     0.882520000000     0.0548612  
H181     H      0.059520000000     0.723130000000     0.856170000000     0.0535581  
H182     H      0.112940000000     0.772410000000     0.841600000000     0.0295604  
H183     H      0.183500000000     0.777920000000     0.894440000000     0.0349522  
H184     H      0.130710000000     0.728460000000     0.909430000000     0.054922   
H185     H      0.811130000000     0.425030000000     0.857000000000     0.0521245  
H186     H      0.828100000000     0.459090000000     0.888110000000     0.0252431  
H187     H      0.890130000000     0.568830000000     0.859830000000     0.0327447  
H188     H      0.873930000000     0.536330000000     0.329000000000     0.0539751  
H189     H      0.802020000000     0.529010000000     0.313100000000     0.0531052  
H190     H      0.774440000000     0.505450000000     0.282320000000     0.0270378  
H191     H      0.814120000000     0.370600000000     0.293620000000     0.0321203  
H192     H      0.842110000000     0.393330000000     0.825030000000     0.0582725  
H193     H      0.251980000000     0.580920000000     0.109350000000     0.0537806  
H194     H      0.307670000000     0.634630000000     0.118460000000     0.030022   
H195     H      0.263930000000     0.631370000000     0.176500000000     0.0300602  
H196     H      0.207910000000     0.577270000000     0.167880000000     0.0538913  
H197     H      0.205600000000     0.496440000000     0.156390000000     0.0539443  
H198     H      0.150780000000     0.441520000000     0.147450000000     0.0309836  
H199     H      0.115520000000     0.520640000000     0.098680000000     0.0317526  
H200     H      0.170260000000     0.576110000000     0.107150000000     0.053687   
H201     H      0.152410000000     0.244330000000     0.053670000000     0.0541142  
H202     H      0.107950000000     0.306440000000     0.064290000000     0.0312289  
H203     H      0.092340000000     0.244280000000     0.119090000000     0.0304099  
H204     H      0.137120000000     0.181490000000     0.108920000000     0.0543928  
H205     H      0.217780000000     0.177830000000     0.101040000000     0.0549054  
H206     H      0.274580000000     0.127880000000     0.090230000000     0.0310343  
H207     H      0.208510000000     0.109330000000     0.036820000000     0.0295373  
H208     H      0.151440000000     0.160230000000     0.047040000000     0.0513411  
H209     H      0.895900000000     0.296260000000     0.179850000000     0.0538955  
H210     H      0.923760000000     0.317440000000     0.148740000000     0.0295295  
H211     H      0.991910000000     0.427870000000     0.173810000000     0.0324533  
H212     H      0.964840000000     0.407630000000     0.205240000000     0.0503833  
H213     H      0.975910000000     0.349140000000     0.228820000000     0.0529567  
H214     H      0.955050000000     0.315360000000     0.259210000000     0.0300845  
H215     H      0.830140000000     0.283200000000     0.236130000000     0.0325339  
H216     H      0.850540000000     0.314550000000     0.205710000000     0.057556   
H217     H      0.955740000000     0.435760000000     0.996430000000     0.0548685  
H218     H      0.941160000000     0.470420000000     0.965450000000     0.028744   
H219     H      0.846580000000     0.555810000000     0.990990000000     0.0319557  
H220     H      0.861700000000     0.523520000000     0.022200000000     0.0508754  
H221     H      0.930310000000     0.527090000000     0.043170000000     0.0535092  
H222     H      0.959600000000     0.500620000000     0.073500000000     0.0317687  
H223     H      0.947730000000     0.364790000000     0.054540000000     0.0396136  
H224     H      0.919150000000     0.390390000000     0.023860000000     0.0539228  
H225     H      0.113990000000     0.627130000000     0.873930000000     0.053826   
H226     H      0.059410000000     0.575770000000     0.861160000000     0.0310941  
H227     H      0.156560000000     0.475430000000     0.853310000000     0.0312055  
H228     H      0.211330000000     0.525310000000     0.866230000000     0.0539097  
H229     H      0.225080000000     0.554710000000     0.899100000000     0.053638   
H230     H      0.280490000000     0.600430000000     0.914330000000     0.0303552  
H231     H      0.238960000000     0.714610000000     0.882040000000     0.0351937  
H232     H      0.182770000000     0.669780000000     0.866560000000     0.0565527  
H233     H      0.223520000000     0.247690000000     0.837900000000     0.0547065  
H234     H      0.285320000000     0.202570000000     0.828580000000     0.0323227  
H235     H      0.214220000000     0.151190000000     0.280630000000     0.029519   
H236     H      0.151840000000     0.197020000000     0.289380000000     0.0535023  
H237     H      0.140340000000     0.285220000000     0.291460000000     0.0546573  
H238     H      0.086810000000     0.340440000000     0.301040000000     0.0311985  
H239     H      0.088160000000     0.288670000000     0.858220000000     0.0295608  
H240     H      0.142610000000     0.233530000000     0.849150000000     0.0542936  
H241     H      0.864280000000     0.376470000000     0.921920000000     0.0577586  
H242     H      0.892650000000     0.392580000000     0.889930000000     0.0270214  
H243     H      0.013830000000     0.432360000000     0.914680000000     0.0314635  
H244     H      0.986850000000     0.416460000000     0.946350000000     0.0530507  
H245     H      0.972020000000     0.343060000000     0.960570000000     0.0533839  
H246     H      0.951730000000     0.310840000000     0.990850000000     0.0309072  
H247     H      0.826170000000     0.370750000000     0.986700000000     0.0247555  
H248     H      0.845670000000     0.404030000000     0.955770000000     0.0560106  
H249     H      0.829010000000     0.528650000000     0.257770000000     0.0545283  
H250     H      0.811430000000     0.555510000000     0.225900000000     0.0316499  
H251     H      0.899510000000     0.461440000000     0.201430000000     0.0272964  
H252     H      0.917540000000     0.433130000000     0.233270000000     0.0522627  
H253     H      0.890990000000     0.396780000000     0.264100000000     0.0566365  
H254     H      0.925960000000     0.381700000000     0.294830000000     0.0313899  
H255     H      0.934270000000     0.522430000000     0.806030000000     0.0276831  
H256     H      0.898800000000     0.538520000000     0.275780000000     0.0529133  
H257     H      0.359750000000     0.047730000000     0.693510000000     0.0518343  
H258     H      0.377380000000     0.077770000000     0.724790000000     0.0314325  
H259     H      0.294220000000     0.981430000000     0.751390000000     0.0259629  
H260     H      0.276180000000     0.949920000000     0.720210000000     0.0513735  
H261     H      0.301910000000     0.910920000000     0.691170000000     0.0529439  
H262     H      0.267870000000     0.889290000000     0.661000000000     0.0323894  
H263     H      0.262050000000     0.026770000000     0.643740000000     0.0299599  
H264     H      0.295380000000     0.049530000000     0.673640000000     0.0527901  
H265     H      0.340640000000     0.038300000000     0.443730000000     0.0514728  
H266     H      0.351040000000     0.061750000000     0.476550000000     0.0316416  
H267     H      0.317030000000     0.931050000000     0.496530000000     0.0281401  
H268     H      0.305620000000     0.906020000000     0.463590000000     0.056034   
H269     H      0.340300000000     0.891820000000     0.432220000000     0.0536318  
H270     H      0.317540000000     0.870630000000     0.400090000000     0.039701   
H271     H      0.256060000000     0.997730000000     0.392430000000     0.0299472  
H272     H      0.277960000000     0.020030000000     0.424370000000     0.0523516  
H273     H      0.451060000000     0.975200000000     0.625190000000     0.0549987  
H274     H      0.441430000000     0.995020000000     0.591790000000     0.031603   
H275     H      0.313170000000     0.940390000000     0.592310000000     0.0297598  
H276     H      0.323080000000     0.917400000000     0.625760000000     0.0598841  
H277     H      0.403260000000     0.009260000000     0.655400000000     0.0538299  
H278     H      0.427680000000     0.995900000000     0.688040000000     0.0293884  
H279     H      0.408110000000     0.855090000000     0.680750000000     0.025492   
H280     H      0.382600000000     0.867490000000     0.648080000000     0.0643842  
H281     H      0.440240000000     0.946240000000     0.360460000000     0.0546012  
H282     H      0.423380000000     0.979180000000     0.329370000000     0.0282722  
H283     H      0.322260000000     0.056840000000     0.354570000000     0.0328128  
H284     H      0.339950000000     0.027070000000     0.385820000000     0.0531343  
H285     H      0.400700000000     0.036510000000     0.407590000000     0.0523077  
H286     H      0.432490000000     0.015650000000     0.438120000000     0.0288257  
H287     H      0.446530000000     0.880350000000     0.418950000000     0.0317389  
H288     H      0.415260000000     0.900290000000     0.388040000000     0.0574155  
H289     H      0.412310000000     0.795430000000     0.756750000000     0.0564493  
H290     H      0.429150000000     0.765890000000     0.725290000000     0.0343011  
H291     H      0.318510000000     0.832110000000     0.701450000000     0.0254214  
H292     H      0.301880000000     0.864140000000     0.732690000000     0.0516099  
H293     H      0.332140000000     0.914270000000     0.760850000000     0.0564123  
H294     H      0.299330000000     0.930790000000     0.791820000000     0.0334563  
H295     H      0.312780000000     0.793440000000     0.308440000000     0.0291631  
H296     H      0.346300000000     0.776240000000     0.777910000000     0.0542898  
H297     H      0.445280000000     0.775500000000     0.545420000000     0.0535195  
H298     H      0.465730000000     0.803720000000     0.514170000000     0.0309958  
H299     H      0.439450000000     0.937900000000     0.532140000000     0.0300724  
H300     H      0.419700000000     0.910750000000     0.563850000000     0.0574352  
H301     H      0.482810000000     0.780960000000     0.576470000000     0.054407   
H302     H      0.472480000000     0.750860000000     0.608310000000     0.0322839  
H303     H      0.360530000000     0.833210000000     0.615840000000     0.0282434  
H304     H      0.370340000000     0.864490000000     0.583800000000     0.0551975  
H305     H      0.231010000000     0.895780000000     0.509270000000     0.0539264  
H306     H      0.199540000000     0.921970000000     0.538940000000     0.0314912  
H307     H      0.299640000000     0.856990000000     0.571070000000     0.0252081  
H308     H      0.332760000000     0.830670000000     0.541370000000     0.0555895  
H309     H      0.366280000000     0.859170000000     0.507990000000     0.058087   
H310     H      0.388470000000     0.826070000000     0.477510000000     0.0308482  
H311     H      0.258650000000     0.780710000000     0.467540000000     0.0297507  
H312     H      0.235480000000     0.814230000000     0.497320000000     0.0542437  
H313     H      0.473220000000     0.789060000000     0.316000000000     0.0534705  
H314     H      0.490940000000     0.804870000000     0.782990000000     0.0307907  
H315     H      0.414590000000     0.924320000000     0.784490000000     0.0315905  
H316     H      0.395140000000     0.908800000000     0.817630000000     0.0553978  
H317     H      0.489330000000     0.817960000000     0.347740000000     0.0527388  
H318     H      0.470220000000     0.792130000000     0.379670000000     0.0303889  
H319     H      0.338870000000     0.831450000000     0.370230000000     0.045509   
H320     H      0.356630000000     0.858120000000     0.838460000000     0.0515476  
H321     H      0.593160000000     0.632940000000     0.686300000000     0.0491494  
H322     H      0.536460000000     0.680640000000     0.673180000000     0.0310342  
H323     H      0.440770000000     0.582840000000     0.688190000000     0.0307974  
H324     H      0.496630000000     0.534440000000     0.701320000000     0.0535117  
H325     H      0.546330000000     0.532160000000     0.728540000000     0.0535485  
H326     H      0.601360000000     0.482480000000     0.741540000000     0.030825   
H327     H      0.685380000000     0.513870000000     0.694800000000     0.0336981  
H328     H      0.630870000000     0.563220000000     0.681200000000     0.0542573  
H329     H      0.620150000000     0.227930000000     0.786100000000     0.0537431  
H330     H      0.678630000000     0.276450000000     0.774970000000     0.0333803  
H331     H      0.601390000000     0.316750000000     0.726920000000     0.0311828  
H332     H      0.542840000000     0.268650000000     0.737460000000     0.0538578  
H333     H      0.492170000000     0.272090000000     0.764430000000     0.0538647  
H334     H      0.429750000000     0.229200000000     0.774640000000     0.031315   
H335     H      0.511190000000     0.118050000000     0.788890000000     0.0305858  
H336     H      0.574850000000     0.160140000000     0.778500000000     0.0530836  
H337     H      0.506860000000     0.605430000000     0.476670000000     0.0535797  
H338     H      0.453880000000     0.661330000000     0.467110000000     0.0313585  
H339     H      0.462510000000     0.618200000000     0.408850000000     0.0308153  
H340     H      0.516190000000     0.562480000000     0.417820000000     0.0533106  
H341     H      0.520080000000     0.492530000000     0.435360000000     0.0535873  
H342     H      0.571290000000     0.435090000000     0.444840000000     0.0307839  
H343     H      0.633400000000     0.526480000000     0.483370000000     0.0310719  
H344     H      0.583060000000     0.585290000000     0.473940000000     0.0535853  
H345     H      0.551000000000     0.129190000000     0.514600000000     0.0527114  
H346     H      0.494630000000     0.078050000000     0.525430000000     0.0347169  
H347     H      0.410900000000     0.188980000000     0.536700000000     0.0315915  
H348     H      0.465610000000     0.240620000000     0.525470000000     0.0536824  
H349     H      0.569150000000     0.179460000000     0.488720000000     0.0546527  
H350     H      0.621060000000     0.234510000000     0.476860000000     0.0307396  
H351     H      0.584170000000     0.325540000000     0.521150000000     0.0318756  
H352     H      0.533660000000     0.271360000000     0.533730000000     0.0535688  
H353     H      0.059150000000     0.092140000000     0.792900000000     0.0531558  
H354     H      0.001720000000     0.144480000000     0.784550000000     0.0305568  
H355     H      0.920840000000     0.088580000000     0.328120000000     0.0305793  
H356     H      0.977210000000     0.035510000000     0.336680000000     0.0534108  
H357     H      0.049190000000     0.036140000000     0.351720000000     0.0535842  
H358     H      0.106580000000     0.984500000000     0.360670000000     0.0309614  
H359     H      0.134210000000     0.960540000000     0.801580000000     0.031397   
H360     H      0.076690000000     0.011640000000     0.792100000000     0.0535862  
H361     H      0.642720000000     0.088650000000     0.733550000000     0.0540837  
H362     H      0.586620000000     0.036010000000     0.723370000000     0.0315452  
H363     H      0.598940000000     0.964960000000     0.776380000000     0.0308364  
H364     H      0.654550000000     0.017130000000     0.787040000000     0.0539652  
H365     H      0.664910000000     0.100540000000     0.795210000000     0.052065   
H366     H      0.727190000000     0.145510000000     0.805020000000     0.0301304  
H367     H      0.786400000000     0.124090000000     0.750510000000     0.0313716  
H368     H      0.724570000000     0.079440000000     0.740230000000     0.0542376  
H369     H      0.820990000000     0.272540000000     0.410870000000     0.0539822  
H370     H      0.787930000000     0.290760000000     0.441490000000     0.0301899  
H371     H      0.744730000000     0.416440000000     0.418890000000     0.0323129  
H372     H      0.776230000000     0.398880000000     0.388130000000     0.0505162  
H373     H      0.760060000000     0.344770000000     0.362580000000     0.0529511  
H374     H      0.782730000000     0.316090000000     0.831740000000     0.0300117  
H375     H      0.900380000000     0.267070000000     0.356690000000     0.0311325  
H376     H      0.878890000000     0.295840000000     0.387810000000     0.053764   
H377     H      0.093240000000     0.120010000000     0.567980000000     0.0528817  
H378     H      0.145560000000     0.064490000000     0.578710000000     0.0336818  
H379     H      0.047440000000     0.998460000000     0.611440000000     0.0305926  
H380     H      0.994780000000     0.054250000000     0.601630000000     0.0530947  
H381     H      0.955450000000     0.073110000000     0.573380000000     0.0533433  
H382     H      0.902060000000     0.124190000000     0.560290000000     0.0314048  
H383     H      0.993850000000     0.231740000000     0.562510000000     0.0340295  
H384     H      0.047940000000     0.181840000000     0.576180000000     0.0560555  
H385     H      0.649190000000     0.173090000000     0.517700000000     0.0542674  
H386     H      0.705650000000     0.224580000000     0.528470000000     0.0346316  
H387     H      0.801360000000     0.147240000000     0.499280000000     0.0315645  
H388     H      0.745860000000     0.095610000000     0.488110000000     0.0539028  
H389     H      0.679960000000     0.090320000000     0.467070000000     0.0537251  
H390     H      0.629040000000     0.030550000000     0.459230000000     0.0297595  
H391     H      0.580080000000     0.032950000000     0.516430000000     0.0309439  
H392     H      0.630590000000     0.092500000000     0.524750000000     0.053013   
H393     H      0.839430000000     0.421040000000     0.649940000000     0.0550013  
H394     H      0.822200000000     0.432820000000     0.683680000000     0.0313794  
H395     H      0.772580000000     0.299180000000     0.687630000000     0.0283023  
H396     H      0.790870000000     0.285640000000     0.654620000000     0.052533   
H397     H      0.880770000000     0.380450000000     0.624970000000     0.0551726  
H398     H      0.888370000000     0.361260000000     0.591110000000     0.0319573  
H399     H      0.767190000000     0.291440000000     0.592480000000     0.0295362  
H400     H      0.757780000000     0.311120000000     0.625630000000     0.0528993  
H401     H      0.639440000000     0.679620000000     0.666630000000     0.0510755  
H402     H      0.696760000000     0.627700000000     0.657590000000     0.0295182  
H403     H      0.792360000000     0.718380000000     0.679550000000     0.0313213  
H404     H      0.736220000000     0.770190000000     0.689100000000     0.0539767  
H405     H      0.609410000000     0.706130000000     0.698190000000     0.0522139  
H406     H      0.556460000000     0.756340000000     0.712220000000     0.0345663  
H407     H      0.626560000000     0.869700000000     0.690930000000     0.030386   
H408     H      0.679450000000     0.820380000000     0.676310000000     0.0533732  
H409     H      0.049820000000     0.731390000000     0.599850000000     0.0532104  
H410     H      0.100860000000     0.790770000000     0.591840000000     0.0296203  
H411     H      0.097800000000     0.838080000000     0.649620000000     0.0315625  
H412     H      0.046650000000     0.779460000000     0.658090000000     0.0538569  
H413     H      0.039210000000     0.697350000000     0.661710000000     0.0536477  
H414     H      0.981720000000     0.645000000000     0.670180000000     0.0301349  
H415     H      0.916050000000     0.673630000000     0.617490000000     0.0305998  
H416     H      0.972600000000     0.726260000000     0.608640000000     0.0536751  
H417     H      0.827350000000     0.477930000000     0.547860000000     0.0529333  
H418     H      0.800500000000     0.454470000000     0.516520000000     0.0287576  
H419     H      0.730460000000     0.346770000000     0.542590000000     0.0352549  
H420     H      0.753960000000     0.371160000000     0.574000000000     0.056131   
H421     H      0.738550000000     0.438350000000     0.593990000000     0.0542015  
H422     H      0.755080000000     0.477350000000     0.623700000000     0.0311846  
H423     H      0.887040000000     0.493280000000     0.606330000000     0.0313799  
H424     H      0.871270000000     0.454330000000     0.576510000000     0.0588793  
H425     H      0.763450000000     0.765710000000     0.463750000000     0.053895   
H426     H      0.820150000000     0.713390000000     0.455410000000     0.0324403  
H427     H      0.730030000000     0.635570000000     0.422590000000     0.0297681  
H428     H      0.672020000000     0.687510000000     0.430790000000     0.0536557  
H429     H      0.650560000000     0.766780000000     0.424580000000     0.0537784  
H430     H      0.596030000000     0.822080000000     0.432860000000     0.0326113  
H431     H      0.642040000000     0.824250000000     0.490740000000     0.0301187  
H432     H      0.696820000000     0.768790000000     0.483000000000     0.0534451  
H433     H      0.093190000000     0.649570000000     0.408260000000     0.0529102  
H434     H      0.031190000000     0.611760000000     0.423020000000     0.029766   
H435     H      0.945290000000     0.707610000000     0.397630000000     0.0328834  
H436     H      0.005660000000     0.745030000000     0.382520000000     0.054842   
H437     H      0.059520000000     0.723130000000     0.356180000000     0.0535596  
H438     H      0.112940000000     0.772420000000     0.341600000000     0.02957    
H439     H      0.183510000000     0.777920000000     0.394440000000     0.0349295  
H440     H      0.130720000000     0.728460000000     0.409430000000     0.0549268  
H441     H      0.811120000000     0.425030000000     0.357000000000     0.0521194  
H442     H      0.828090000000     0.459090000000     0.388110000000     0.025253   
H443     H      0.890140000000     0.568820000000     0.359830000000     0.032741   
H444     H      0.873920000000     0.536340000000     0.829000000000     0.0539547  
H445     H      0.802020000000     0.529000000000     0.813100000000     0.0531094  
H446     H      0.774440000000     0.505440000000     0.782320000000     0.0270259  
H447     H      0.814130000000     0.370600000000     0.793620000000     0.0321075  
H448     H      0.842110000000     0.393330000000     0.325040000000     0.0582263  
H449     H      0.251980000000     0.580910000000     0.609350000000     0.053819   
H450     H      0.307660000000     0.634630000000     0.618450000000     0.0300356  
H451     H      0.263930000000     0.631360000000     0.676490000000     0.0300225  
H452     H      0.207920000000     0.577260000000     0.667870000000     0.0539378  
H453     H      0.205610000000     0.496430000000     0.656390000000     0.0539269  
H454     H      0.150780000000     0.441510000000     0.647450000000     0.0310064  
H455     H      0.115520000000     0.520640000000     0.598680000000     0.0317845  
H456     H      0.170260000000     0.576110000000     0.607150000000     0.0537062  
H457     H      0.152410000000     0.244330000000     0.553680000000     0.0542559  
H458     H      0.107950000000     0.306430000000     0.564290000000     0.0312811  
H459     H      0.092340000000     0.244270000000     0.619090000000     0.0304084  
H460     H      0.137120000000     0.181480000000     0.608920000000     0.0543957  
H461     H      0.217780000000     0.177820000000     0.601040000000     0.0549076  
H462     H      0.274580000000     0.127870000000     0.590230000000     0.0310363  
H463     H      0.208510000000     0.109320000000     0.536820000000     0.0296272  
H464     H      0.151440000000     0.160220000000     0.547040000000     0.0514075  
H465     H      0.895900000000     0.296270000000     0.679850000000     0.0539306  
H466     H      0.923760000000     0.317440000000     0.648740000000     0.029514   
H467     H      0.991930000000     0.427860000000     0.673820000000     0.0324387  
H468     H      0.964850000000     0.407630000000     0.705240000000     0.0503996  
H469     H      0.975920000000     0.349140000000     0.728820000000     0.0529386  
H470     H      0.955060000000     0.315350000000     0.759210000000     0.0300783  
H471     H      0.830140000000     0.283210000000     0.736140000000     0.0325105  
H472     H      0.850550000000     0.314560000000     0.705720000000     0.0575983  
H473     H      0.955740000000     0.435760000000     0.496430000000     0.0549049  
H474     H      0.941160000000     0.470420000000     0.465450000000     0.0286943  
H475     H      0.846580000000     0.555810000000     0.490990000000     0.0319866  
H476     H      0.861710000000     0.523510000000     0.522200000000     0.0508618  
H477     H      0.930320000000     0.527090000000     0.543170000000     0.0535379  
H478     H      0.959600000000     0.500620000000     0.573500000000     0.0317956  
H479     H      0.947730000000     0.364790000000     0.554540000000     0.0396726  
H480     H      0.919150000000     0.390380000000     0.523870000000     0.0540469  
H481     H      0.113990000000     0.627120000000     0.373930000000     0.0538157  
H482     H      0.059410000000     0.575770000000     0.361160000000     0.0311035  
H483     H      0.156560000000     0.475420000000     0.353320000000     0.0311995  
H484     H      0.211330000000     0.525310000000     0.366240000000     0.0539048  
H485     H      0.225080000000     0.554700000000     0.399100000000     0.0535739  
H486     H      0.280480000000     0.600430000000     0.414330000000     0.0303384  
H487     H      0.238970000000     0.714610000000     0.382040000000     0.0352253  
H488     H      0.182780000000     0.669780000000     0.366560000000     0.056571   
H489     H      0.223520000000     0.247680000000     0.337910000000     0.0546591  
H490     H      0.285320000000     0.202560000000     0.328590000000     0.0322849  
H491     H      0.214210000000     0.151170000000     0.780630000000     0.0294874  
H492     H      0.151830000000     0.197010000000     0.789380000000     0.0535221  
H493     H      0.140330000000     0.285210000000     0.791460000000     0.0546764  
H494     H      0.086800000000     0.340440000000     0.801040000000     0.0311819  
H495     H      0.088150000000     0.288670000000     0.358210000000     0.0295636  
H496     H      0.142610000000     0.233530000000     0.349160000000     0.0542131  
H497     H      0.864270000000     0.376460000000     0.421920000000     0.0577124  
H498     H      0.892650000000     0.392580000000     0.389930000000     0.0270057  
H499     H      0.013830000000     0.432360000000     0.414680000000     0.0314505  
H500     H      0.986840000000     0.416460000000     0.446350000000     0.0529546  
H501     H      0.972020000000     0.343060000000     0.460560000000     0.0533038  
H502     H      0.951730000000     0.310840000000     0.490850000000     0.0307491  
H503     H      0.826170000000     0.370740000000     0.486700000000     0.0245683  
H504     H      0.845660000000     0.404030000000     0.455770000000     0.0559678  
H505     H      0.829010000000     0.528630000000     0.757770000000     0.0545385  
H506     H      0.811420000000     0.555490000000     0.725900000000     0.0316456  
H507     H      0.899520000000     0.461440000000     0.701430000000     0.0272788  
H508     H      0.917550000000     0.433130000000     0.733270000000     0.0522676  
H509     H      0.890990000000     0.396770000000     0.764100000000     0.0566362  
H510     H      0.925960000000     0.381700000000     0.794830000000     0.0313803  
H511     H      0.934280000000     0.522430000000     0.306030000000     0.0277118  
H512     H      0.898800000000     0.538510000000     0.775780000000     0.0529352  
In1      In     0.012340000000     0.425680000000     0.847600000000     2.40983    
In2      In     0.031110000000     0.389890000000     0.110590000000     2.41402    
In3      In     0.877450000000     0.584750000000     0.926150000000     2.41036    
In4      In     0.843380000000     0.576570000000     0.160440000000     2.41609    
In5      In     0.853370000000     0.266270000000     0.038090000000     2.40477    
In6      In     0.864760000000     0.214100000000     0.294570000000     2.42271    
In7      In     0.690970000000     0.378280000000     0.979570000000     2.43573    
In8      In     0.731090000000     0.398040000000     0.236710000000     2.40345    
In9      In     0.362340000000     0.734810000000     0.922250000000     2.40028    
In10     In     0.389120000000     0.720310000000     0.163130000000     2.40195    
In11     In     0.523070000000     0.919920000000     0.975400000000     2.4009     
In12     In     0.504980000000     0.900780000000     0.230040000000     2.41528    
In13     In     0.349290000000     0.045120000000     0.043050000000     2.43408    
In14     In     0.357690000000     0.094940000000     0.291250000000     2.40489    
In15     In     0.222430000000     0.884820000000     0.847230000000     2.40841    
In16     In     0.182320000000     0.923030000000     0.105960000000     2.40053    
In17     In     0.012340000000     0.425680000000     0.347600000000     2.4096     
In18     In     0.031120000000     0.389880000000     0.610590000000     2.41378    
In19     In     0.877460000000     0.584750000000     0.426150000000     2.41069    
In20     In     0.843380000000     0.576570000000     0.660440000000     2.41619    
In21     In     0.853370000000     0.266270000000     0.538090000000     2.40495    
In22     In     0.864760000000     0.214100000000     0.794570000000     2.42274    
In23     In     0.690970000000     0.378280000000     0.479570000000     2.43546    
In24     In     0.731090000000     0.398040000000     0.736710000000     2.40323    
In25     In     0.362340000000     0.734800000000     0.422250000000     2.40045    
In26     In     0.389120000000     0.720310000000     0.663130000000     2.4024     
In27     In     0.523070000000     0.919910000000     0.475400000000     2.40029    
In28     In     0.504990000000     0.900780000000     0.730040000000     2.41552    
In29     In     0.349300000000     0.045110000000     0.543050000000     2.43398    
In30     In     0.357690000000     0.094940000000     0.791250000000     2.40488    
In31     In     0.222430000000     0.884820000000     0.347230000000     2.40872    
In32     In     0.182320000000     0.923030000000     0.605960000000     2.40051    
N1       N      0.336590000000     0.032080000000     0.240280000000    -0.195642   
N2       N      0.261420000000     0.956620000000     0.150520000000    -0.195476   
N3       N      0.334260000000     0.998000000000     0.988840000000    -0.195252   
N4       N      0.284960000000     0.932520000000     0.894050000000    -0.193184   
N5       N      0.376040000000     0.970510000000     0.089900000000    -0.196127   
N6       N      0.420850000000     0.924430000000     0.186490000000    -0.196614   
N7       N      0.372030000000     0.020610000000     0.839810000000    -0.195033   
N8       N      0.442800000000     0.946910000000     0.930490000000    -0.195162   
N9       N      0.374170000000     0.795790000000     0.211310000000    -0.194877   
N10      N      0.302550000000     0.862970000000     0.302040000000    -0.196145   
N11      N      0.455680000000     0.872890000000     0.021210000000    -0.196204   
N12      N      0.415400000000     0.789380000000     0.114230000000    -0.194375   
N13      N      0.246870000000     0.890460000000     0.057110000000    -0.195042   
N14      N      0.325160000000     0.801000000000     0.970420000000    -0.19618    
N15      N      0.454610000000     0.866100000000     0.281500000000    -0.194721   
N16      N      0.403040000000     0.809350000000     0.877060000000    -0.195126   
N17      N      0.484600000000     0.635280000000     0.179900000000    -0.192179   
N18      N      0.646970000000     0.494240000000     0.218970000000    -0.193695   
N19      N      0.643760000000     0.300780000000     0.250420000000    -0.193388   
N20      N      0.465950000000     0.170380000000     0.282240000000    -0.194127   
N21      N      0.454230000000     0.643520000000     0.937340000000    -0.193359   
N22      N      0.605960000000     0.476680000000     0.964780000000    -0.194104   
N23      N      0.448770000000     0.129890000000     0.031770000000    -0.192926   
N24      N      0.605750000000     0.284110000000     0.997950000000    -0.193356   
N25      N      0.957350000000     0.120420000000     0.305800000000    -0.194389   
N26      N      0.124440000000     0.968880000000     0.831780000000    -0.193696   
N27      N      0.589270000000     0.996450000000     0.249020000000    -0.193789   
N28      N      0.761310000000     0.137690000000     0.278530000000    -0.193858   
N29      N      0.763380000000     0.354420000000     0.932220000000    -0.196404   
N30      N      0.842450000000     0.288370000000     0.842200000000    -0.196063   
N31      N      0.100000000000     0.027030000000     0.095500000000    -0.193588   
N32      N      0.944170000000     0.181510000000     0.060400000000    -0.193215   
N33      N      0.757580000000     0.189180000000     0.014900000000    -0.190781   
N34      N      0.601360000000     0.027090000000     0.987320000000    -0.194219   
N35      N      0.794970000000     0.367330000000     0.187840000000    -0.196178   
N36      N      0.828880000000     0.324080000000     0.089570000000    -0.195307   
N37      N      0.748510000000     0.669100000000     0.168150000000    -0.193247   
N38      N      0.588110000000     0.816540000000     0.202800000000    -0.193847   
N39      N      0.102650000000     0.818860000000     0.120100000000    -0.194174   
N40      N      0.944620000000     0.655940000000     0.144540000000    -0.194066   
N41      N      0.762830000000     0.399820000000     0.027450000000    -0.1966     
N42      N      0.821770000000     0.489400000000     0.116780000000    -0.195226   
N43      N      0.779130000000     0.670730000000     0.938410000000    -0.193065   
N44      N      0.615320000000     0.827290000000     0.962350000000    -0.193405   
N45      N      0.983900000000     0.656630000000     0.911170000000    -0.193899   
N46      N      0.151140000000     0.779710000000     0.867150000000    -0.19543    
N47      N      0.858820000000     0.516960000000     0.876110000000    -0.196385   
N48      N      0.792560000000     0.436450000000     0.285730000000    -0.195291   
N49      N      0.289890000000     0.636600000000     0.148130000000    -0.195538   
N50      N      0.129180000000     0.477260000000     0.122490000000    -0.193404   
N51      N      0.097770000000     0.280160000000     0.092560000000    -0.195601   
N52      N      0.245930000000     0.115810000000     0.062640000000    -0.195408   
N53      N      0.960610000000     0.373410000000     0.159160000000    -0.19577    
N54      N      0.891600000000     0.295950000000     0.249650000000    -0.195503   
N55      N      0.893200000000     0.515690000000     0.976050000000    -0.194954   
N56      N      0.956350000000     0.430930000000     0.066030000000    -0.194542   
N57      N      0.103920000000     0.521660000000     0.856770000000    -0.193849   
N58      N      0.263790000000     0.660650000000     0.899200000000    -0.193695   
N59      N      0.254190000000     0.173750000000     0.303930000000    -0.192929   
N60      N      0.084370000000     0.319010000000     0.830390000000    -0.194153   
N61      N      0.955660000000     0.412030000000     0.900020000000    -0.197117   
N62      N      0.887360000000     0.338090000000     0.990820000000    -0.196984   
N63      N      0.855590000000     0.511490000000     0.211540000000    -0.196511   
N64      N      0.932950000000     0.451050000000     0.302480000000    -0.193981   
N65      N      0.336590000000     0.032080000000     0.740280000000    -0.195657   
N66      N      0.261420000000     0.956620000000     0.650520000000    -0.195471   
N67      N      0.334270000000     0.998000000000     0.488840000000    -0.195623   
N68      N      0.284960000000     0.932520000000     0.394050000000    -0.193217   
N69      N      0.376040000000     0.970500000000     0.589910000000    -0.196004   
N70      N      0.420850000000     0.924430000000     0.686490000000    -0.196558   
N71      N      0.372030000000     0.020600000000     0.339800000000    -0.195086   
N72      N      0.442800000000     0.946900000000     0.430490000000    -0.195182   
N73      N      0.374170000000     0.795790000000     0.711310000000    -0.19493    
N74      N      0.302550000000     0.862970000000     0.802040000000    -0.19605    
N75      N      0.455680000000     0.872890000000     0.521210000000    -0.196163   
N76      N      0.415400000000     0.789380000000     0.614230000000    -0.194403   
N77      N      0.246870000000     0.890460000000     0.557110000000    -0.195067   
N78      N      0.325160000000     0.801010000000     0.470420000000    -0.196372   
N79      N      0.454610000000     0.866100000000     0.781500000000    -0.194751   
N80      N      0.403040000000     0.809340000000     0.377060000000    -0.195098   
N81      N      0.484600000000     0.635280000000     0.679900000000    -0.192214   
N82      N      0.646970000000     0.494240000000     0.718970000000    -0.193691   
N83      N      0.643760000000     0.300770000000     0.750420000000    -0.193412   
N84      N      0.465950000000     0.170380000000     0.782230000000    -0.194062   
N85      N      0.454220000000     0.643520000000     0.437340000000    -0.19339    
N86      N      0.605960000000     0.476680000000     0.464780000000    -0.194136   
N87      N      0.448780000000     0.129890000000     0.531770000000    -0.192823   
N88      N      0.605750000000     0.284110000000     0.497950000000    -0.193808   
N89      N      0.957350000000     0.120420000000     0.805800000000    -0.194476   
N90      N      0.124440000000     0.968880000000     0.331780000000    -0.193734   
N91      N      0.589270000000     0.996450000000     0.749020000000    -0.193723   
N92      N      0.761310000000     0.137690000000     0.778530000000    -0.193869   
N93      N      0.763380000000     0.354410000000     0.432220000000    -0.196384   
N94      N      0.842450000000     0.288370000000     0.342200000000    -0.196132   
N95      N      0.100000000000     0.027030000000     0.595500000000    -0.19364    
N96      N      0.944170000000     0.181500000000     0.560400000000    -0.193265   
N97      N      0.757580000000     0.189170000000     0.514900000000    -0.191188   
N98      N      0.601360000000     0.027090000000     0.487320000000    -0.194401   
N99      N      0.794970000000     0.367330000000     0.687840000000    -0.196189   
N100     N      0.828880000000     0.324070000000     0.589570000000    -0.195328   
N101     N      0.748510000000     0.669100000000     0.668150000000    -0.193234   
N102     N      0.588120000000     0.816530000000     0.702810000000    -0.19381    
N103     N      0.102650000000     0.818850000000     0.620100000000    -0.194156   
N104     N      0.944620000000     0.655930000000     0.644540000000    -0.194176   
N105     N      0.762830000000     0.399820000000     0.527450000000    -0.196687   
N106     N      0.821770000000     0.489390000000     0.616780000000    -0.19526    
N107     N      0.779140000000     0.670720000000     0.438410000000    -0.193049   
N108     N      0.615330000000     0.827290000000     0.462350000000    -0.193435   
N109     N      0.983910000000     0.656630000000     0.411170000000    -0.193937   
N110     N      0.151150000000     0.779710000000     0.367150000000    -0.195561   
N111     N      0.858820000000     0.516960000000     0.376110000000    -0.196352   
N112     N      0.792550000000     0.436450000000     0.785730000000    -0.195319   
N113     N      0.289890000000     0.636600000000     0.648130000000    -0.195585   
N114     N      0.129180000000     0.477260000000     0.622490000000    -0.193368   
N115     N      0.097770000000     0.280150000000     0.592560000000    -0.19553    
N116     N      0.245930000000     0.115810000000     0.562640000000    -0.195358   
N117     N      0.960620000000     0.373410000000     0.659160000000    -0.195808   
N118     N      0.891600000000     0.295950000000     0.749650000000    -0.195531   
N119     N      0.893200000000     0.515690000000     0.476050000000    -0.195021   
N120     N      0.956360000000     0.430930000000     0.566040000000    -0.194609   
N121     N      0.103920000000     0.521650000000     0.356770000000    -0.193828   
N122     N      0.263790000000     0.660650000000     0.399210000000    -0.193666   
N123     N      0.254190000000     0.173750000000     0.803920000000    -0.192956   
N124     N      0.084370000000     0.319010000000     0.330390000000    -0.194086   
N125     N      0.955650000000     0.412030000000     0.400020000000    -0.197118   
N126     N      0.887350000000     0.338090000000     0.490820000000    -0.197316   
N127     N      0.855600000000     0.511480000000     0.711540000000    -0.196541   
N128     N      0.932950000000     0.451050000000     0.802480000000    -0.194012   
O1       O      0.032620000000     0.499170000000     0.852400000000    -0.484787   
O2       O      0.081880000000     0.450600000000     0.848250000000    -0.5036     
O3       O      0.964740000000     0.403490000000     0.324470000000    -0.501641   
O4       O      0.049330000000     0.386120000000     0.325220000000    -0.496719   
O5       O      0.012660000000     0.427540000000     0.879980000000    -0.518459   
O6       O      0.042630000000     0.356390000000     0.852770000000    -0.499      
O7       O      0.975110000000     0.473520000000     0.828150000000    -0.502074   
O8       O      0.953340000000     0.408880000000     0.866820000000    -0.501706   
O9       O      0.070900000000     0.452910000000     0.104340000000    -0.49032    
O10      O      0.090940000000     0.411660000000     0.127580000000    -0.498892   
O11      O      0.987080000000     0.376100000000     0.084990000000    -0.500355   
O12      O      0.070570000000     0.351520000000     0.088580000000    -0.505995   
O13      O      0.008220000000     0.412390000000     0.140000000000    -0.508082   
O14      O      0.058280000000     0.319160000000     0.115120000000    -0.500316   
O15      O      0.993100000000     0.443540000000     0.094410000000    -0.497102   
O16      O      0.977570000000     0.355340000000     0.127910000000    -0.505632   
O17      O      0.951400000000     0.596560000000     0.926630000000    -0.492084   
O18      O      0.910490000000     0.646490000000     0.914570000000    -0.497222   
O19      O      0.860670000000     0.568970000000     0.957010000000    -0.51144    
O20      O      0.850240000000     0.647340000000     0.939770000000    -0.493512   
O21      O      0.882020000000     0.576680000000     0.894140000000    -0.518575   
O22      O      0.806080000000     0.606610000000     0.923910000000    -0.49677    
O23      O      0.909010000000     0.528680000000     0.944090000000    -0.494407   
O24      O      0.851700000000     0.523390000000     0.909120000000    -0.497735   
O25      O      0.910890000000     0.606670000000     0.165430000000    -0.500117   
O26      O      0.877600000000     0.623230000000     0.139590000000    -0.501762   
O27      O      0.826330000000     0.565200000000     0.191710000000    -0.515246   
O28      O      0.819500000000     0.645380000000     0.169160000000    -0.50258    
O29      O      0.865930000000     0.534050000000     0.135420000000    -0.506241   
O30      O      0.773110000000     0.600580000000     0.157120000000    -0.485525   
O31      O      0.871620000000     0.520580000000     0.179440000000    -0.508432   
O32      O      0.799730000000     0.528970000000     0.143410000000    -0.496288   
O33      O      0.781920000000     0.249530000000     0.032820000000    -0.483335   
O34      O      0.829510000000     0.208470000000     0.019520000000    -0.493208   
O35      O      0.811000000000     0.279140000000     0.063940000000    -0.50612    
O36      O      0.921730000000     0.250380000000     0.048930000000    -0.488525   
O37      O      0.840250000000     0.322030000000     0.015720000000    -0.503012   
O38      O      0.875500000000     0.197560000000     0.048920000000    -0.492136   
O39      O      0.867690000000     0.318950000000     0.061380000000    -0.500442   
O40      O      0.899910000000     0.286910000000     0.014840000000    -0.516183   
O41      O      0.829410000000     0.167880000000     0.273720000000    -0.499367   
O42      O      0.798430000000     0.182370000000     0.300150000000    -0.496133   
O43      O      0.884690000000     0.242000000000     0.823700000000    -0.509892   
O44      O      0.890290000000     0.152710000000     0.310440000000    -0.505774   
O45      O      0.846340000000     0.251040000000     0.267430000000    -0.504992   
O46      O      0.930320000000     0.180990000000     0.288860000000    -0.498084   
O47      O      0.825970000000     0.265630000000     0.311450000000    -0.505387   
O48      O      0.908920000000     0.264180000000     0.278940000000    -0.496063   
O49      O      0.659100000000     0.308830000000     0.977110000000    -0.490549   
O50      O      0.637130000000     0.354080000000     0.998590000000    -0.507802   
O51      O      0.720400000000     0.398530000000     0.951220000000    -0.519693   
O52      O      0.633290000000     0.404930000000     0.962780000000    -0.506818   
O53      O      0.717740000000     0.357650000000     0.008440000000    -0.512289   
O54      O      0.664390000000     0.449660000000     0.982230000000    -0.496371   
O55      O      0.737400000000     0.334420000000     0.962090000000    -0.503077   
O56      O      0.743080000000     0.417410000000     0.996360000000    -0.502412   
O57      O      0.669740000000     0.357600000000     0.231160000000    -0.494955   
O58      O      0.708850000000     0.338130000000     0.254880000000    -0.489056   
O59      O      0.782070000000     0.413690000000     0.213700000000    -0.493021   
O60      O      0.711180000000     0.455130000000     0.216910000000    -0.494227   
O61      O      0.777700000000     0.384550000000     0.261950000000    -0.495451   
O62      O      0.669920000000     0.440030000000     0.240390000000    -0.489844   
O63      O      0.754720000000     0.348490000000     0.214390000000    -0.516063   
O64      O      0.752370000000     0.450100000000     0.258480000000    -0.516484   
O65      O      0.322790000000     0.669910000000     0.919420000000    -0.494915   
O66      O      0.302680000000     0.726200000000     0.903080000000    -0.485147   
O67      O      0.374940000000     0.784970000000     0.946700000000    -0.498485   
O68      O      0.405940000000     0.700310000000     0.944160000000    -0.500562   
O69      O      0.352400000000     0.788470000000     0.899510000000    -0.499273   
O70      O      0.409980000000     0.678820000000     0.915150000000    -0.491406   
O71      O      0.312880000000     0.754440000000     0.944680000000    -0.515625   
O72      O      0.416160000000     0.763650000000     0.903190000000    -0.497695   
O73      O      0.412850000000     0.652850000000     0.174150000000    -0.499552   
O74      O      0.460300000000     0.702140000000     0.167050000000    -0.47905    
O75      O      0.431090000000     0.736850000000     0.137460000000    -0.497468   
O76      O      0.351000000000     0.678430000000     0.141520000000    -0.50953    
O77      O      0.411500000000     0.746870000000     0.192050000000    -0.507921   
O78      O      0.327070000000     0.680830000000     0.169940000000    -0.498906   
O79      O      0.375850000000     0.777810000000     0.141930000000    -0.503135   
O80      O      0.353440000000     0.774160000000     0.180730000000    -0.498033   
O81      O      0.580030000000     0.874330000000     0.983500000000    -0.497122   
O82      O      0.558840000000     0.874650000000     0.954490000000    -0.490319   
O83      O      0.478130000000     0.929920000000     0.001130000000    -0.493953   
O84      O      0.550510000000     0.973480000000     0.995500000000    -0.494862   
O85      O      0.481170000000     0.898600000000     0.949960000000    -0.495829   
O86      O      0.572470000000     0.973920000000     0.966750000000    -0.501028   
O87      O      0.493710000000     0.863370000000     0.993170000000    -0.504394   
O88      O      0.478690000000     0.966820000000     0.958310000000    -0.506547   
O89      O      0.563580000000     0.886800000000     0.211180000000    -0.506618   
O90      O      0.528450000000     0.830770000000     0.221730000000    -0.486509   
O91      O      0.495940000000     0.852820000000     0.254750000000    -0.503534   
O92      O      0.551400000000     0.930140000000     0.252190000000    -0.50534    
O93      O      0.454100000000     0.877580000000     0.208310000000    -0.509629   
O94      O      0.540580000000     0.967970000000     0.226800000000    -0.485216   
O95      O      0.457000000000     0.911650000000     0.254620000000    -0.504924   
O96      O      0.462190000000     0.947570000000     0.212290000000    -0.501732   
O97      O      0.279500000000     0.070710000000     0.040280000000    -0.506147   
O98      O      0.315270000000     0.087910000000     0.065280000000    -0.506287   
O99      O      0.345420000000     0.053350000000     0.011090000000    -0.51889    
O100     O      0.420010000000     0.058950000000     0.035750000000    -0.488795   
O101     O      0.331850000000     0.988860000000     0.064200000000    -0.503305   
O102     O      0.379100000000     0.114620000000     0.041780000000    -0.499491   
O103     O      0.335870000000     0.987350000000     0.021810000000    -0.50365    
O104     O      0.395810000000     0.015510000000     0.064640000000    -0.510094   
O105     O      0.431550000000     0.105240000000     0.291980000000    -0.495441   
O106     O      0.391930000000     0.160440000000     0.284110000000    -0.499307   
O107     O      0.338310000000     0.073810000000     0.821180000000    -0.508251   
O108     O      0.325000000000     0.150630000000     0.307890000000    -0.488549   
O109     O      0.366200000000     0.087410000000     0.259200000000    -0.515331   
O110     O      0.288190000000     0.119360000000     0.285740000000    -0.495926   
O111     O      0.388770000000     0.036710000000     0.308200000000    -0.492806   
O112     O      0.328390000000     0.037740000000     0.273180000000    -0.501032   
O113     O      0.171820000000     0.828960000000     0.843230000000    -0.501512   
O114     O      0.205940000000     0.831890000000     0.869610000000    -0.495239   
O115     O      0.266000000000     0.909410000000     0.322890000000    -0.504374   
O116     O      0.179960000000     0.919700000000     0.324900000000    -0.497195   
O117     O      0.272660000000     0.878930000000     0.870940000000    -0.501256   
O118     O      0.166930000000     0.932480000000     0.854260000000    -0.494296   
O119     O      0.264190000000     0.839520000000     0.828540000000    -0.512638   
O120     O      0.242720000000     0.942270000000     0.866970000000    -0.494294   
O121     O      0.144960000000     0.858640000000     0.098650000000    -0.501453   
O122     O      0.141500000000     0.883050000000     0.127170000000    -0.493188   
O123     O      0.190270000000     0.922100000000     0.073680000000    -0.504525   
O124     O      0.117340000000     0.958790000000     0.109190000000    -0.50038    
O125     O      0.226670000000     0.905020000000     0.131160000000    -0.499743   
O126     O      0.167050000000     0.992780000000     0.094000000000    -0.485317   
O127     O      0.240200000000     0.891740000000     0.090160000000    -0.505418   
O128     O      0.221650000000     0.973600000000     0.123390000000    -0.507076   
O129     O      0.032620000000     0.499160000000     0.352400000000    -0.484868   
O130     O      0.081880000000     0.450590000000     0.348250000000    -0.503642   
O131     O      0.964740000000     0.403490000000     0.824470000000    -0.501652   
O132     O      0.049330000000     0.386130000000     0.825230000000    -0.497198   
O133     O      0.012650000000     0.427540000000     0.379980000000    -0.518449   
O134     O      0.042620000000     0.356390000000     0.352770000000    -0.498923   
O135     O      0.975110000000     0.473520000000     0.328150000000    -0.502045   
O136     O      0.953330000000     0.408880000000     0.366820000000    -0.501593   
O137     O      0.070900000000     0.452910000000     0.604340000000    -0.490136   
O138     O      0.090940000000     0.411650000000     0.627580000000    -0.498939   
O139     O      0.987090000000     0.376100000000     0.584990000000    -0.500363   
O140     O      0.070570000000     0.351520000000     0.588580000000    -0.506017   
O141     O      0.008220000000     0.412390000000     0.640010000000    -0.507832   
O142     O      0.058280000000     0.319150000000     0.615120000000    -0.500297   
O143     O      0.993100000000     0.443540000000     0.594410000000    -0.496978   
O144     O      0.977580000000     0.355340000000     0.627910000000    -0.505708   
O145     O      0.951400000000     0.596560000000     0.426630000000    -0.492428   
O146     O      0.910500000000     0.646480000000     0.414580000000    -0.497668   
O147     O      0.860680000000     0.568970000000     0.457010000000    -0.511524   
O148     O      0.850240000000     0.647330000000     0.439770000000    -0.493681   
O149     O      0.882020000000     0.576680000000     0.394140000000    -0.518658   
O150     O      0.806080000000     0.606600000000     0.423910000000    -0.496718   
O151     O      0.909010000000     0.528670000000     0.444090000000    -0.494259   
O152     O      0.851700000000     0.523390000000     0.409120000000    -0.497695   
O153     O      0.910890000000     0.606670000000     0.665420000000    -0.500453   
O154     O      0.877600000000     0.623230000000     0.639590000000    -0.501906   
O155     O      0.826340000000     0.565190000000     0.691710000000    -0.515361   
O156     O      0.819500000000     0.645380000000     0.669160000000    -0.502551   
O157     O      0.865930000000     0.534040000000     0.635420000000    -0.50627    
O158     O      0.773110000000     0.600570000000     0.657120000000    -0.485457   
O159     O      0.871630000000     0.520580000000     0.679440000000    -0.508386   
O160     O      0.799740000000     0.528960000000     0.643410000000    -0.496446   
O161     O      0.781920000000     0.249530000000     0.532820000000    -0.483342   
O162     O      0.829510000000     0.208470000000     0.519520000000    -0.493083   
O163     O      0.811000000000     0.279130000000     0.563940000000    -0.506085   
O164     O      0.921730000000     0.250370000000     0.548930000000    -0.48863    
O165     O      0.840250000000     0.322030000000     0.515720000000    -0.503018   
O166     O      0.875510000000     0.197560000000     0.548920000000    -0.492237   
O167     O      0.867690000000     0.318940000000     0.561380000000    -0.500548   
O168     O      0.899910000000     0.286910000000     0.514840000000    -0.516201   
O169     O      0.829410000000     0.167880000000     0.773720000000    -0.499384   
O170     O      0.798430000000     0.182360000000     0.800150000000    -0.496152   
O171     O      0.884690000000     0.242000000000     0.323700000000    -0.509829   
O172     O      0.890290000000     0.152710000000     0.810440000000    -0.505914   
O173     O      0.846340000000     0.251040000000     0.767430000000    -0.504887   
O174     O      0.930310000000     0.180980000000     0.788860000000    -0.498121   
O175     O      0.825970000000     0.265630000000     0.811450000000    -0.505418   
O176     O      0.908930000000     0.264170000000     0.778940000000    -0.49601    
O177     O      0.659100000000     0.308830000000     0.477110000000    -0.490615   
O178     O      0.637130000000     0.354080000000     0.498590000000    -0.508031   
O179     O      0.720390000000     0.398530000000     0.451220000000    -0.519645   
O180     O      0.633290000000     0.404920000000     0.462780000000    -0.506718   
O181     O      0.717740000000     0.357650000000     0.508440000000    -0.512081   
O182     O      0.664390000000     0.449660000000     0.482230000000    -0.496359   
O183     O      0.737400000000     0.334420000000     0.462090000000    -0.503116   
O184     O      0.743070000000     0.417410000000     0.496360000000    -0.503093   
O185     O      0.669740000000     0.357600000000     0.731160000000    -0.494866   
O186     O      0.708850000000     0.338130000000     0.754880000000    -0.489004   
O187     O      0.782070000000     0.413690000000     0.713690000000    -0.492948   
O188     O      0.711180000000     0.455130000000     0.716910000000    -0.494219   
O189     O      0.777700000000     0.384550000000     0.761950000000    -0.495461   
O190     O      0.669920000000     0.440030000000     0.740390000000    -0.48982    
O191     O      0.754720000000     0.348490000000     0.714390000000    -0.516104   
O192     O      0.752370000000     0.450100000000     0.758480000000    -0.516487   
O193     O      0.322780000000     0.669910000000     0.419430000000    -0.494887   
O194     O      0.302680000000     0.726190000000     0.403070000000    -0.485008   
O195     O      0.374930000000     0.784960000000     0.446700000000    -0.498717   
O196     O      0.405940000000     0.700310000000     0.444160000000    -0.500643   
O197     O      0.352400000000     0.788470000000     0.399510000000    -0.499233   
O198     O      0.409970000000     0.678820000000     0.415150000000    -0.491585   
O199     O      0.312880000000     0.754440000000     0.444670000000    -0.515866   
O200     O      0.416160000000     0.763650000000     0.403190000000    -0.497732   
O201     O      0.412850000000     0.652850000000     0.674150000000    -0.499642   
O202     O      0.460300000000     0.702130000000     0.667050000000    -0.479156   
O203     O      0.431090000000     0.736850000000     0.637460000000    -0.497515   
O204     O      0.351000000000     0.678430000000     0.641520000000    -0.509523   
O205     O      0.411500000000     0.746870000000     0.692040000000    -0.50819    
O206     O      0.327070000000     0.680830000000     0.669940000000    -0.498913   
O207     O      0.375850000000     0.777800000000     0.641930000000    -0.50329    
O208     O      0.353440000000     0.774160000000     0.680730000000    -0.498065   
O209     O      0.580030000000     0.874320000000     0.483500000000    -0.497167   
O210     O      0.558850000000     0.874650000000     0.454490000000    -0.490291   
O211     O      0.478130000000     0.929920000000     0.501130000000    -0.493577   
O212     O      0.550520000000     0.973470000000     0.495500000000    -0.494963   
O213     O      0.481180000000     0.898590000000     0.449960000000    -0.495659   
O214     O      0.572470000000     0.973920000000     0.466750000000    -0.501114   
O215     O      0.493720000000     0.863360000000     0.493170000000    -0.50503    
O216     O      0.478690000000     0.966820000000     0.458310000000    -0.506323   
O217     O      0.563580000000     0.886800000000     0.711180000000    -0.506618   
O218     O      0.528450000000     0.830760000000     0.721730000000    -0.486402   
O219     O      0.495940000000     0.852820000000     0.754750000000    -0.50357    
O220     O      0.551400000000     0.930130000000     0.752190000000    -0.505436   
O221     O      0.454110000000     0.877570000000     0.708310000000    -0.509556   
O222     O      0.540580000000     0.967970000000     0.726800000000    -0.485232   
O223     O      0.457010000000     0.911650000000     0.754620000000    -0.504985   
O224     O      0.462200000000     0.947560000000     0.712290000000    -0.50175    
O225     O      0.279500000000     0.070700000000     0.540280000000    -0.505932   
O226     O      0.315270000000     0.087910000000     0.565280000000    -0.506153   
O227     O      0.345420000000     0.053350000000     0.511090000000    -0.518696   
O228     O      0.420010000000     0.058940000000     0.535750000000    -0.488702   
O229     O      0.331850000000     0.988850000000     0.564200000000    -0.50321    
O230     O      0.379100000000     0.114620000000     0.541780000000    -0.499305   
O231     O      0.335870000000     0.987350000000     0.521810000000    -0.503755   
O232     O      0.395810000000     0.015500000000     0.564640000000    -0.510171   
O233     O      0.431550000000     0.105240000000     0.791980000000    -0.495424   
O234     O      0.391930000000     0.160440000000     0.784110000000    -0.499292   
O235     O      0.338300000000     0.073800000000     0.321180000000    -0.508145   
O236     O      0.325000000000     0.150640000000     0.807890000000    -0.48841    
O237     O      0.366200000000     0.087410000000     0.759200000000    -0.515332   
O238     O      0.288190000000     0.119350000000     0.785740000000    -0.495879   
O239     O      0.388770000000     0.036710000000     0.808200000000    -0.492772   
O240     O      0.328390000000     0.037740000000     0.773180000000    -0.501028   
O241     O      0.171820000000     0.828970000000     0.343240000000    -0.501925   
O242     O      0.205940000000     0.831890000000     0.369610000000    -0.495396   
O243     O      0.266000000000     0.909410000000     0.822890000000    -0.504459   
O244     O      0.179960000000     0.919690000000     0.824900000000    -0.497151   
O245     O      0.272660000000     0.878940000000     0.370940000000    -0.501387   
O246     O      0.166920000000     0.932470000000     0.354260000000    -0.494333   
O247     O      0.264180000000     0.839520000000     0.328540000000    -0.512674   
O248     O      0.242710000000     0.942270000000     0.366970000000    -0.494343   
O249     O      0.144960000000     0.858640000000     0.598650000000    -0.501439   
O250     O      0.141500000000     0.883040000000     0.627170000000    -0.493205   
O251     O      0.190270000000     0.922100000000     0.573680000000    -0.504464   
O252     O      0.117340000000     0.958790000000     0.609190000000    -0.500384   
O253     O      0.226670000000     0.905020000000     0.631160000000    -0.499749   
O254     O      0.167050000000     0.992780000000     0.594000000000    -0.485314   
O255     O      0.240200000000     0.891740000000     0.590160000000    -0.505217   
O256     O      0.221650000000     0.973600000000     0.623390000000    -0.507078   


