data_structure

_audit_creation_method RASPA-1.0
_audit_creation_date 2023-5-23
_audit_author_name 'Poobodin Mano'

_cell_length_a    66.0549
_cell_length_b    66.5565
_cell_length_c    66.1414
_cell_angle_alpha 90.1892
_cell_angle_beta  89.9076
_cell_angle_gamma 89.7161
_cell_volume      290777

_symmetry_cell_setting          triclinic
_symmetry_space_group_name_Hall 'P 1'
_symmetry_space_group_name_H-M  'P 1'
_symmetry_Int_Tables_number     1

_symmetry_equiv_pos_as_xyz 'x,y,z'

loop_
_atom_site_label
_atom_site_type_symbol
_atom_site_fract_x
_atom_site_fract_y
_atom_site_fract_z
_atom_site_charge
C1       C      0.079630000000     0.329090000000     0.903170000000     0.414216   
C2       C      0.152520000000     0.330490000000     0.902530000000     0.413289   
C3       C      0.120330000000     0.328880000000     0.955010000000     0.407055   
C4       C      0.114380000000     0.278060000000     0.905010000000     0.406941   
C5       C      0.141180000000     0.378870000000     0.166890000000     0.411263   
C6       C      0.143600000000     0.378040000000     0.093160000000     0.412021   
C7       C      0.142510000000     0.429350000000     0.130070000000     0.410933   
C8       C      0.193320000000     0.376970000000     0.128780000000     0.409665   
C9       C      0.152260000000     0.826820000000     0.100690000000     0.411181   
C10      C      0.078300000000     0.823890000000     0.101130000000     0.411572   
C11      C      0.115660000000     0.826020000000     0.049770000000     0.411052   
C12      C      0.115040000000     0.775160000000     0.102130000000     0.410146   
C13      C      0.093450000000     0.566210000000     0.156120000000     0.415781   
C14      C      0.092590000000     0.638470000000     0.152550000000     0.41216    
C15      C      0.040280000000     0.604040000000     0.155210000000     0.408847   
C16      C      0.092090000000     0.601610000000     0.205630000000     0.408528   
C17      C      0.093090000000     0.318500000000     0.357430000000     0.413278   
C18      C      0.093350000000     0.390640000000     0.357060000000     0.413718   
C19      C      0.091160000000     0.357330000000     0.304940000000     0.40649    
C20      C      0.040790000000     0.350710000000     0.355580000000     0.406814   
C21      C      0.331470000000     0.327020000000     0.104660000000     0.413597   
C22      C      0.404070000000     0.324520000000     0.105880000000     0.413868   
C23      C      0.369500000000     0.273820000000     0.103250000000     0.407143   
C24      C      0.365310000000     0.324570000000     0.052940000000     0.406729   
C25      C      0.832010000000     0.616790000000     0.104730000000     0.417612   
C26      C      0.902560000000     0.623330000000     0.103390000000     0.41515    
C27      C      0.863430000000     0.628120000000     0.049890000000     0.40869    
C28      C      0.867910000000     0.673660000000     0.102060000000     0.411323   
C29      C      0.641970000000     0.074860000000     0.913890000000     0.413003   
C30      C      0.634410000000     0.074740000000     0.843150000000     0.411793   
C31      C      0.691590000000     0.073420000000     0.878330000000     0.412743   
C32      C      0.645440000000     0.021270000000     0.872940000000     0.412992   
C33      C      0.598000000000     0.063840000000     0.653240000000     0.410857   
C34      C      0.588690000000     0.133250000000     0.650690000000     0.420014   
C35      C      0.538360000000     0.094740000000     0.654810000000     0.407485   
C36      C      0.583600000000     0.096450000000     0.706320000000     0.41481    
C37      C      0.401650000000     0.122150000000     0.605330000000     0.408914   
C38      C      0.329720000000     0.127760000000     0.607870000000     0.409897   
C39      C      0.369790000000     0.177220000000     0.605110000000     0.412529   
C40      C      0.363370000000     0.126240000000     0.554340000000     0.412376   
C41      C      0.095350000000     0.891320000000     0.651320000000     0.413705   
C42      C      0.102260000000     0.819390000000     0.648640000000     0.410885   
C43      C      0.096770000000     0.856280000000     0.701380000000     0.409187   
C44      C      0.046400000000     0.849750000000     0.649420000000     0.410814   
C45      C      0.651580000000     0.873670000000     0.589970000000     0.411326   
C46      C      0.649330000000     0.876370000000     0.660910000000     0.409047   
C47      C      0.704170000000     0.879730000000     0.622750000000     0.410927   
C48      C      0.652070000000     0.928230000000     0.629030000000     0.41457    
C49      C      0.588870000000     0.814560000000     0.848030000000     0.411129   
C50      C      0.594940000000     0.886590000000     0.843130000000     0.409384   
C51      C      0.592010000000     0.848960000000     0.794520000000     0.412544   
C52      C      0.539470000000     0.854590000000     0.845300000000     0.410517   
C53      C      0.887530000000     0.884520000000     0.150570000000     0.413751   
C54      C      0.887720000000     0.812100000000     0.149540000000     0.413361   
C55      C      0.939620000000     0.844690000000     0.151150000000     0.406563   
C56      C      0.888860000000     0.851110000000     0.202030000000     0.406191   
C57      C      0.583760000000     0.636710000000     0.352530000000     0.410198   
C58      C      0.586520000000     0.564640000000     0.348840000000     0.409625   
C59      C      0.532560000000     0.602320000000     0.348430000000     0.411388   
C60      C      0.585210000000     0.599120000000     0.298580000000     0.412929   
C61      C      0.640630000000     0.379920000000     0.344200000000     0.41455    
C62      C      0.640520000000     0.376570000000     0.416550000000     0.411257   
C63      C      0.693320000000     0.381150000000     0.383360000000     0.40995    
C64      C      0.640240000000     0.429960000000     0.378400000000     0.408886   
C65      C      0.638700000000     0.571530000000     0.162840000000     0.417387   
C66      C      0.641520000000     0.578250000000     0.092380000000     0.413188   
C67      C      0.694530000000     0.566980000000     0.125650000000     0.41327    
C68      C      0.642990000000     0.520970000000     0.126900000000     0.410609   
C69      C      0.592740000000     0.311980000000     0.155580000000     0.41231    
C70      C      0.594270000000     0.384880000000     0.154290000000     0.411064   
C71      C      0.542550000000     0.347200000000     0.154720000000     0.410298   
C72      C      0.593520000000     0.349910000000     0.206840000000     0.412136   
C73      C      0.839940000000     0.876340000000     0.340100000000     0.410386   
C74      C      0.845730000000     0.877000000000     0.411500000000     0.408778   
C75      C      0.840770000000     0.928900000000     0.375060000000     0.413239   
C76      C      0.789800000000     0.877780000000     0.380590000000     0.413054   
C77      C      0.383680000000     0.815980000000     0.357980000000     0.409386   
C78      C      0.390130000000     0.886450000000     0.358130000000     0.410897   
C79      C      0.440430000000     0.845220000000     0.354790000000     0.412147   
C80      C      0.388900000000     0.852080000000     0.305030000000     0.413194   
C81      C      0.580060000000     0.823240000000     0.401600000000     0.412384   
C82      C      0.652260000000     0.826080000000     0.401900000000     0.412607   
C83      C      0.620580000000     0.821570000000     0.454470000000     0.407965   
C84      C      0.613270000000     0.772050000000     0.403920000000     0.407497   
C85      C      0.392080000000     0.315400000000     0.652550000000     0.413477   
C86      C      0.391340000000     0.387750000000     0.653460000000     0.413535   
C87      C      0.393300000000     0.354270000000     0.705140000000     0.407151   
C88      C      0.443900000000     0.347720000000     0.654340000000     0.406859   
C89      C      0.581470000000     0.320310000000     0.604480000000     0.410879   
C90      C      0.654750000000     0.321240000000     0.604120000000     0.411479   
C91      C      0.618400000000     0.269410000000     0.603400000000     0.412012   
C92      C      0.619700000000     0.322480000000     0.553080000000     0.410267   
C93      C      0.152860000000     0.623330000000     0.602380000000     0.4115     
C94      C      0.085400000000     0.633320000000     0.608070000000     0.419039   
C95      C      0.125710000000     0.684240000000     0.597150000000     0.410499   
C96      C      0.118040000000     0.639950000000     0.548990000000     0.41509    
C97      C      0.137420000000     0.587130000000     0.412920000000     0.417266   
C98      C      0.141500000000     0.578990000000     0.343550000000     0.414768   
C99      C      0.193720000000     0.573440000000     0.384550000000     0.410928   
C100     C      0.141020000000     0.528650000000     0.378880000000     0.414146   
C101     C      0.398810000000     0.632360000000     0.404800000000     0.412415   
C102     C      0.328920000000     0.625030000000     0.413920000000     0.415402   
C103     C      0.369420000000     0.635120000000     0.463260000000     0.409539   
C104     C      0.359640000000     0.682530000000     0.413110000000     0.412353   
C105     C      0.344960000000     0.580530000000     0.597590000000     0.41321    
C106     C      0.341410000000     0.574860000000     0.669610000000     0.415033   
C107     C      0.289750000000     0.574380000000     0.630010000000     0.409969   
C108     C      0.342780000000     0.526050000000     0.633360000000     0.408813   
C109     C      0.143940000000     0.877150000000     0.913860000000     0.414769   
C110     C      0.141650000000     0.880510000000     0.840950000000     0.4115     
C111     C      0.142710000000     0.931230000000     0.877900000000     0.410412   
C112     C      0.193840000000     0.879940000000     0.878860000000     0.40973    
C113     C      0.343170000000     0.376840000000     0.843220000000     0.409758   
C114     C      0.343810000000     0.376590000000     0.915950000000     0.410216   
C115     C      0.342400000000     0.428470000000     0.879330000000     0.41195    
C116     C      0.291460000000     0.377450000000     0.881100000000     0.411876   
C117     C      0.403900000000     0.834160000000     0.900810000000     0.409724   
C118     C      0.332210000000     0.830400000000     0.900110000000     0.410403   
C119     C      0.371290000000     0.779680000000     0.903690000000     0.412942   
C120     C      0.366550000000     0.831080000000     0.953460000000     0.412772   
C121     C      0.388280000000     0.639660000000     0.859380000000     0.41395    
C122     C      0.388200000000     0.567180000000     0.861070000000     0.413342   
C123     C      0.389340000000     0.598500000000     0.808260000000     0.406687   
C124     C      0.440120000000     0.606680000000     0.858380000000     0.406645   
C125     C      0.899460000000     0.129500000000     0.905630000000     0.412106   
C126     C      0.826800000000     0.125460000000     0.908520000000     0.414177   
C127     C      0.862220000000     0.127660000000     0.958170000000     0.410054   
C128     C      0.862750000000     0.180010000000     0.908650000000     0.410904   
C129     C      0.652250000000     0.627550000000     0.901550000000     0.411218   
C130     C      0.579140000000     0.630770000000     0.904790000000     0.412906   
C131     C      0.619890000000     0.629860000000     0.955030000000     0.410237   
C132     C      0.616050000000     0.679910000000     0.901840000000     0.410935   
C133     C      0.838490000000     0.824220000000     0.593600000000     0.4094     
C134     C      0.910810000000     0.818170000000     0.598080000000     0.411812   
C135     C      0.871580000000     0.768610000000     0.594510000000     0.411011   
C136     C      0.875980000000     0.820790000000     0.544480000000     0.412817   
C137     C      0.896830000000     0.635400000000     0.651650000000     0.408371   
C138     C      0.893690000000     0.565050000000     0.656850000000     0.409606   
C139     C      0.949250000000     0.603730000000     0.658150000000     0.412211   
C140     C      0.899030000000     0.598430000000     0.707800000000     0.411225   
C141     C      0.844350000000     0.571660000000     0.842490000000     0.413185   
C142     C      0.835800000000     0.579910000000     0.913140000000     0.414443   
C143     C      0.786640000000     0.572870000000     0.872960000000     0.409857   
C144     C      0.835570000000     0.523100000000     0.883460000000     0.408689   
C145     C      0.884610000000     0.316840000000     0.859370000000     0.41125    
C146     C      0.887130000000     0.387010000000     0.864720000000     0.410291   
C147     C      0.939410000000     0.349240000000     0.858150000000     0.413343   
C148     C      0.888740000000     0.356780000000     0.808360000000     0.412251   
C149     C      0.830160000000     0.329420000000     0.409330000000     0.411502   
C150     C      0.903400000000     0.324520000000     0.405830000000     0.412037   
C151     C      0.866060000000     0.326780000000     0.459370000000     0.410859   
C152     C      0.866870000000     0.275710000000     0.408070000000     0.41027    
C153     C      0.839660000000     0.377260000000     0.596270000000     0.412719   
C154     C      0.841310000000     0.379320000000     0.669410000000     0.411527   
C155     C      0.839210000000     0.429970000000     0.633850000000     0.410555   
C156     C      0.789570000000     0.376900000000     0.630380000000     0.410181   
C157     C      0.341680000000     0.875220000000     0.093140000000     0.413524   
C158     C      0.341800000000     0.874940000000     0.166180000000     0.413921   
C159     C      0.340640000000     0.926470000000     0.132450000000     0.407699   
C160     C      0.289690000000     0.876230000000     0.126420000000     0.407533   
C161     C      0.892960000000     0.139110000000     0.358190000000     0.413951   
C162     C      0.889910000000     0.066650000000     0.356260000000     0.411797   
C163     C      0.892760000000     0.101250000000     0.304740000000     0.410134   
C164     C      0.943000000000     0.104030000000     0.356430000000     0.409326   
C165     C      0.091880000000     0.140100000000     0.857870000000     0.410593   
C166     C      0.090330000000     0.068080000000     0.860640000000     0.409909   
C167     C      0.038790000000     0.106430000000     0.858600000000     0.412029   
C168     C      0.089500000000     0.101210000000     0.807260000000     0.411845   
C169     C      0.153440000000     0.129130000000     0.403580000000     0.410167   
C170     C      0.080760000000     0.127900000000     0.405770000000     0.409166   
C171     C      0.119120000000     0.130140000000     0.456460000000     0.412543   
C172     C      0.115330000000     0.180470000000     0.404780000000     0.412265   
C173     C      0.137790000000     0.081740000000     0.668130000000     0.414298   
C174     C      0.139170000000     0.083160000000     0.595510000000     0.414401   
C175     C      0.190900000000     0.080760000000     0.629480000000     0.406345   
C176     C      0.140640000000     0.030580000000     0.634310000000     0.406607   
C177     C      0.842960000000     0.077410000000     0.167280000000     0.409624   
C178     C      0.844990000000     0.074830000000     0.095170000000     0.410486   
C179     C      0.841650000000     0.023890000000     0.133360000000     0.412392   
C180     C      0.791680000000     0.075760000000     0.128750000000     0.411985   
C181     C      0.653030000000     0.123310000000     0.103810000000     0.413927   
C182     C      0.580250000000     0.123360000000     0.104250000000     0.413696   
C183     C      0.613480000000     0.174990000000     0.103610000000     0.406648   
C184     C      0.619520000000     0.124900000000     0.051990000000     0.406638   
C185     C      0.343290000000     0.075730000000     0.343000000000     0.413287   
C186     C      0.341880000000     0.077390000000     0.415800000000     0.413976   
C187     C      0.290720000000     0.076180000000     0.381730000000     0.407779   
C188     C      0.341320000000     0.024750000000     0.377370000000     0.407979   
C189     C      0.389060000000     0.136380000000     0.153000000000     0.409678   
C190     C      0.390570000000     0.063820000000     0.151720000000     0.409769   
C191     C      0.441450000000     0.101750000000     0.152370000000     0.411824   
C192     C      0.390310000000     0.098280000000     0.204010000000     0.411366   
C193     C      0.377390000000     0.087700000000     0.301100000000    -0.0855552  
C194     C      0.363670000000     0.089500000000     0.284980000000     0.0358295  
C195     C      0.342930000000     0.087920000000     0.289280000000    -0.086562   
C196     C      0.336450000000     0.083470000000     0.308790000000     0.0746161  
C197     C      0.370290000000     0.083830000000     0.320640000000     0.0734256  
C198     C      0.370780000000     0.092220000000     0.263720000000     0.0359254  
C199     C      0.388730000000     0.102540000000     0.259230000000    -0.0856677  
C200     C      0.395170000000     0.104370000000     0.239150000000     0.0739189  
C201     C      0.366290000000     0.086670000000     0.227760000000     0.0742673  
C202     C      0.359690000000     0.084120000000     0.247580000000    -0.0865513  
C203     C      0.484840000000     0.115170000000     0.121100000000    -0.0864923  
C204     C      0.501040000000     0.106910000000     0.132040000000     0.0359467  
C205     C      0.496650000000     0.096700000000     0.150060000000    -0.0858012  
C206     C      0.476620000000     0.095190000000     0.156770000000     0.074034   
C207     C      0.465050000000     0.112930000000     0.127970000000     0.0741566  
C208     C      0.522290000000     0.109460000000     0.124770000000     0.0358725  
C209     C      0.526490000000     0.111080000000     0.104030000000    -0.086591   
C210     C      0.546010000000     0.115500000000     0.097470000000     0.0744579  
C211     C      0.558020000000     0.114990000000     0.131210000000     0.0737124  
C212     C      0.538500000000     0.111150000000     0.138390000000    -0.0857701  
C213     C      0.748430000000     0.106060000000     0.112820000000    -0.0864746  
C214     C      0.732170000000     0.095880000000     0.121740000000     0.0358931  
C215     C      0.736460000000     0.078680000000     0.133240000000    -0.0857749  
C216     C      0.756470000000     0.072030000000     0.135400000000     0.0739657  
C217     C      0.768190000000     0.099290000000     0.115680000000     0.0741088  
C218     C      0.710980000000     0.103100000000     0.118610000000     0.0358855  
C219     C      0.706890000000     0.123630000000     0.115920000000    -0.0866778  
C220     C      0.687390000000     0.130080000000     0.111140000000     0.0746309  
C221     C      0.675220000000     0.096710000000     0.113230000000     0.0737925  
C222     C      0.694710000000     0.089620000000     0.117500000000    -0.0858092  
C223     C      0.113700000000     0.128740000000     0.511570000000    -0.085754   
C224     C      0.124020000000     0.110850000000     0.516230000000     0.0358261  
C225     C      0.132660000000     0.099810000000     0.500270000000    -0.0865425  
C226     C      0.130590000000     0.106390000000     0.480420000000     0.0742562  
C227     C      0.112310000000     0.135130000000     0.491480000000     0.0738646  
C228     C      0.126170000000     0.103720000000     0.537490000000     0.0359168  
C229     C      0.127900000000     0.117280000000     0.553700000000    -0.0857587  
C230     C      0.131440000000     0.110130000000     0.573260000000     0.0733759  
C231     C      0.131430000000     0.076550000000     0.561230000000     0.0747133  
C232     C      0.127350000000     0.083100000000     0.541680000000    -0.086829   
C233     C      0.235790000000     0.077500000000     0.389730000000    -0.0854684  
C234     C      0.231560000000     0.097960000000     0.386770000000     0.0356959  
C235     C      0.247510000000     0.110630000000     0.381250000000    -0.0867652  
C236     C      0.267110000000     0.102990000000     0.379480000000     0.0744514  
C237     C      0.255650000000     0.070310000000     0.387680000000     0.0728062  
C238     C      0.210910000000     0.106350000000     0.390250000000     0.035796   
C239     C      0.193510000000     0.095710000000     0.384660000000    -0.0858207  
C240     C      0.174310000000     0.103750000000     0.388770000000     0.0735552  
C241     C      0.189110000000     0.132690000000     0.403460000000     0.0739657  
C242     C      0.208460000000     0.125120000000     0.399640000000    -0.0865755  
C243     C      0.119950000000     0.087130000000     0.763360000000    -0.086614   
C244     C      0.109190000000     0.096130000000     0.747480000000     0.0359021  
C245     C      0.091360000000     0.106730000000     0.752200000000    -0.0858386  
C246     C      0.084780000000     0.108110000000     0.772290000000     0.0739722  
C247     C      0.113210000000     0.089200000000     0.783210000000     0.0741823  
C248     C      0.116590000000     0.094120000000     0.726250000000     0.0359259  
C249     C      0.137390000000     0.092610000000     0.722190000000    -0.086795   
C250     C      0.144160000000     0.088750000000     0.702610000000     0.074769   
C251     C      0.110480000000     0.089580000000     0.690330000000     0.0736309  
C252     C      0.103090000000     0.092920000000     0.709900000000    -0.0858518  
C253     C      0.892560000000     0.090910000000     0.250320000000    -0.0857563  
C254     C      0.872580000000     0.096010000000     0.245250000000     0.0356747  
C255     C      0.859950000000     0.103850000000     0.260410000000    -0.0867201  
C256     C      0.867100000000     0.105790000000     0.280130000000     0.0738711  
C257     C      0.899250000000     0.093110000000     0.270250000000     0.0728498  
C258     C      0.864570000000     0.092250000000     0.224590000000     0.0357993  
C259     C      0.876390000000     0.095750000000     0.207350000000    -0.0859605  
C260     C      0.868750000000     0.091200000000     0.188160000000     0.0737385  
C261     C      0.837910000000     0.080160000000     0.202670000000     0.0736757  
C262     C      0.845040000000     0.084540000000     0.222000000000    -0.0864635  
C263     C      0.997880000000     0.111520000000     0.356620000000    -0.0837197  
C264     C      0.002340000000     0.109280000000     0.377220000000     0.0339494  
C265     C      0.986550000000     0.104300000000     0.390430000000    -0.0852786  
C266     C      0.966850000000     0.102360000000     0.383140000000     0.0741451  
C267     C      0.977980000000     0.109320000000     0.349810000000     0.0730175  
C268     C      0.023090000000     0.113080000000     0.385090000000     0.0363883  
C269     C      0.040360000000     0.107330000000     0.374090000000    -0.0862045  
C270     C      0.059640000000     0.112000000000     0.381420000000     0.0736456  
C271     C      0.045190000000     0.127440000000     0.410440000000     0.0738779  
C272     C      0.025760000000     0.123090000000     0.403560000000    -0.0868387  
C273     C      0.340680000000     0.981080000000     0.139750000000    -0.0853192  
C274     C      0.361170000000     0.985530000000     0.136530000000     0.034725   
C275     C      0.374330000000     0.969790000000     0.131220000000    -0.0866146  
C276     C      0.367120000000     0.950190000000     0.129860000000     0.0744339  
C277     C      0.333930000000     0.961230000000     0.138100000000     0.0726665  
C278     C      0.369090000000     0.006220000000     0.139540000000     0.0366365  
C279     C      0.357860000000     0.023200000000     0.133780000000    -0.0860539  
C280     C      0.365470000000     0.042460000000     0.137490000000     0.0738226  
C281     C      0.395130000000     0.028510000000     0.152040000000     0.0737356  
C282     C      0.387990000000     0.009130000000     0.148640000000    -0.0856749  
C283     C      0.871650000000     0.179020000000     0.390180000000    -0.0861153  
C284     C      0.877880000000     0.196230000000     0.379750000000     0.0359529  
C285     C      0.889050000000     0.193750000000     0.361890000000    -0.0868474  
C286     C      0.893810000000     0.174520000000     0.354900000000     0.0744566  
C287     C      0.876660000000     0.159940000000     0.382700000000     0.0736358  
C288     C      0.873300000000     0.216740000000     0.387520000000     0.0358157  
C289     C      0.868110000000     0.232240000000     0.374190000000    -0.0866661  
C290     C      0.865540000000     0.251810000000     0.381420000000     0.0739895  
C291     C      0.872350000000     0.241050000000     0.414870000000     0.0735933  
C292     C      0.875040000000     0.221270000000     0.408150000000    -0.0859599  
C293     C      0.843840000000     0.373310000000     0.541340000000    -0.0870297  
C294     C      0.855060000000     0.355540000000     0.539050000000     0.0360375  
C295     C      0.861350000000     0.345330000000     0.556460000000    -0.0862139  
C296     C      0.856320000000     0.352930000000     0.575580000000     0.0738158  
C297     C      0.839010000000     0.380390000000     0.560610000000     0.0746734  
C298     C      0.859620000000     0.347610000000     0.518520000000     0.0357432  
C299     C      0.857470000000     0.327140000000     0.514050000000    -0.0859957  
C300     C      0.860130000000     0.320300000000     0.494210000000     0.0733563  
C301     C      0.867750000000     0.353320000000     0.483310000000     0.0739113  
C302     C      0.865170000000     0.360670000000     0.502920000000    -0.0868177  
C303     C      0.859930000000     0.374250000000     0.764710000000    -0.08646    
C304     C      0.869510000000     0.364080000000     0.748710000000     0.0356846  
C305     C      0.886110000000     0.351620000000     0.753230000000    -0.0857368  
C306     C      0.892570000000     0.349510000000     0.773270000000     0.0735395  
C307     C      0.866530000000     0.371500000000     0.784500000000     0.0735221  
C308     C      0.862120000000     0.366660000000     0.727550000000     0.0356876  
C309     C      0.841480000000     0.369930000000     0.723750000000    -0.0866132  
C310     C      0.834830000000     0.373900000000     0.704180000000     0.0742723  
C311     C      0.868210000000     0.370140000000     0.691510000000     0.0728976  
C312     C      0.875500000000     0.366510000000     0.711030000000    -0.0856014  
C313     C      0.866810000000     0.478810000000     0.893640000000    -0.0865725  
C314     C      0.855680000000     0.463680000000     0.884020000000     0.0357385  
C315     C      0.836790000000     0.468680000000     0.875760000000    -0.0859877  
C316     C      0.829920000000     0.488560000000     0.876360000000     0.0740956  
C317     C      0.859470000000     0.498520000000     0.893970000000     0.0735359  
C318     C      0.864370000000     0.443210000000     0.881210000000     0.0359048  
C319     C      0.884760000000     0.440750000000     0.875840000000    -0.0864093  
C320     C      0.892300000000     0.421700000000     0.871090000000     0.0737144  
C321     C      0.860280000000     0.407190000000     0.877750000000     0.0742809  
C322     C      0.852200000000     0.426070000000     0.882550000000    -0.0864225  
C323     C      0.869070000000     0.603440000000     0.754120000000    -0.0868679  
C324     C      0.879270000000     0.590180000000     0.766970000000     0.035692   
C325     C      0.896830000000     0.580580000000     0.759970000000    -0.0869197  
C326     C      0.903660000000     0.584070000000     0.740300000000     0.0734231  
C327     C      0.876070000000     0.606240000000     0.734390000000     0.0736663  
C328     C      0.870920000000     0.585470000000     0.787150000000     0.0358019  
C329     C      0.866140000000     0.600740000000     0.800970000000    -0.0868653  
C330     C      0.857640000000     0.595850000000     0.819690000000     0.0735104  
C331     C      0.858110000000     0.561220000000     0.811010000000     0.0732971  
C332     C      0.867030000000     0.565530000000     0.792410000000    -0.0872042  
C333     C      0.857720000000     0.526480000000     0.640480000000    -0.0857549  
C334     C      0.869020000000     0.508890000000     0.643690000000     0.0356398  
C335     C      0.888780000000     0.510700000000     0.651130000000    -0.0866607  
C336     C      0.896790000000     0.529610000000     0.655170000000     0.0738565  
C337     C      0.866250000000     0.545260000000     0.644730000000     0.0725341  
C338     C      0.860440000000     0.488640000000     0.639610000000     0.0355121  
C339     C      0.840350000000     0.484020000000     0.644650000000    -0.0855503  
C340     C      0.833240000000     0.464370000000     0.642170000000     0.0724451  
C341     C      0.865150000000     0.453980000000     0.629310000000     0.0739544  
C342     C      0.872680000000     0.473390000000     0.631450000000    -0.0867133  
C343     C      0.867200000000     0.725600000000     0.628350000000    -0.0864706  
C344     C      0.876170000000     0.710270000000     0.616790000000     0.0354304  
C345     C      0.881890000000     0.714570000000     0.596850000000    -0.0857299  
C346     C      0.879550000000     0.734070000000     0.589310000000     0.0729015  
C347     C      0.865130000000     0.744870000000     0.620370000000     0.0728558  
C348     C      0.880710000000     0.690390000000     0.625980000000     0.0356661  
C349     C      0.888170000000     0.689310000000     0.645760000000    -0.0866192  
C350     C      0.893230000000     0.670760000000     0.654120000000     0.0739605  
C351     C      0.883510000000     0.654060000000     0.623970000000     0.0727243  
C352     C      0.878330000000     0.672450000000     0.615070000000    -0.0857986  
C353     C      0.689770000000     0.593240000000     0.879430000000    -0.0863986  
C354     C      0.707740000000     0.603840000000     0.882760000000     0.0358075  
C355     C      0.706560000000     0.622840000000     0.891870000000    -0.0865775  
C356     C      0.687830000000     0.630640000000     0.897830000000     0.0737002  
C357     C      0.671240000000     0.601590000000     0.885430000000     0.0738659  
C358     C      0.727750000000     0.594860000000     0.877740000000     0.0358417  
C359     C      0.732190000000     0.574880000000     0.882760000000    -0.0863416  
C360     C      0.751850000000     0.567440000000     0.880230000000     0.0742308  
C361     C      0.762490000000     0.598620000000     0.866730000000     0.0736169  
C362     C      0.743050000000     0.606580000000     0.869150000000    -0.0867437  
C363     C      0.856270000000     0.125830000000     0.013190000000    -0.0859899  
C364     C      0.860180000000     0.105460000000     0.017040000000     0.036089   
C365     C      0.865590000000     0.093010000000     0.000760000000    -0.087043   
C366     C      0.866340000000     0.100770000000     0.981220000000     0.0751513  
C367     C      0.857330000000     0.133140000000     0.993410000000     0.0740749  
C368     C      0.857630000000     0.096970000000     0.037670000000     0.0358554  
C369     C      0.863100000000     0.107910000000     0.054970000000    -0.0860318  
C370     C      0.859360000000     0.100020000000     0.074190000000     0.0741144  
C371     C      0.845580000000     0.070520000000     0.059610000000     0.0740397  
C372     C      0.849020000000     0.077950000000     0.040240000000    -0.0864694  
C373     C      0.872220000000     0.234180000000     0.908420000000    -0.0856471  
C374     C      0.866540000000     0.239250000000     0.888640000000     0.0354698  
C375     C      0.858550000000     0.224160000000     0.876220000000    -0.0865331  
C376     C      0.857080000000     0.204520000000     0.883320000000     0.0736861  
C377     C      0.870430000000     0.214340000000     0.915090000000     0.072644   
C378     C      0.869880000000     0.259840000000     0.880640000000     0.0358915  
C379     C      0.866780000000     0.276890000000     0.892790000000    -0.0862727  
C380     C      0.871210000000     0.295980000000     0.885230000000     0.0740964  
C381     C      0.881120000000     0.281820000000     0.853780000000     0.073802   
C382     C      0.876890000000     0.262570000000     0.860820000000    -0.086565   
C383     C      0.953420000000     0.117620000000     0.905800000000    -0.0867791  
C384     C      0.957700000000     0.116060000000     0.885070000000     0.0361159  
C385     C      0.941560000000     0.117910000000     0.871390000000    -0.0857936  
C386     C      0.921960000000     0.121760000000     0.878530000000     0.0733005  
C387     C      0.933830000000     0.121980000000     0.912330000000     0.0747009  
C388     C      0.978980000000     0.113240000000     0.877950000000     0.0354218  
C389     C      0.995080000000     0.121580000000     0.888900000000    -0.0856588  
C390     C      0.014940000000     0.118830000000     0.882340000000     0.0733404  
C391     C      0.003630000000     0.100400000000     0.853830000000     0.0729866  
C392     C      0.983510000000     0.102480000000     0.860210000000    -0.0847167  
C393     C      0.523890000000     0.629790000000     0.902350000000    -0.0865412  
C394     C      0.520620000000     0.618170000000     0.884960000000     0.0357144  
C395     C      0.537500000000     0.610490000000     0.874580000000    -0.0860071  
C396     C      0.557030000000     0.614600000000     0.881580000000     0.0734223  
C397     C      0.543570000000     0.633590000000     0.908910000000     0.0734669  
C398     C      0.499680000000     0.614280000000     0.877740000000     0.0357333  
C399     C      0.484080000000     0.610610000000     0.891580000000    -0.0866863  
C400     C      0.464310000000     0.607940000000     0.884780000000     0.074149   
C401     C      0.474940000000     0.611920000000     0.850770000000     0.0728581  
C402     C      0.494940000000     0.614710000000     0.857080000000    -0.0856909  
C403     C      0.371660000000     0.832840000000     0.008590000000    -0.0859051  
C404     C      0.359680000000     0.849680000000     0.013420000000     0.0355911  
C405     C      0.350280000000     0.860060000000     0.997540000000    -0.0861661  
C406     C      0.353100000000     0.853810000000     0.977620000000     0.0738942  
C407     C      0.373810000000     0.826740000000     0.988430000000     0.0739985  
C408     C      0.356620000000     0.856360000000     0.034780000000     0.0358913  
C409     C      0.355830000000     0.842520000000     0.050740000000    -0.0856809  
C410     C      0.351510000000     0.849140000000     0.070400000000     0.0735073  
C411     C      0.348870000000     0.882750000000     0.058950000000     0.0746417  
C412     C      0.353630000000     0.876770000000     0.039310000000    -0.0868266  
C413     C      0.364300000000     0.725120000000     0.902870000000    -0.0858609  
C414     C      0.375250000000     0.719690000000     0.885460000000     0.0358015  
C415     C      0.384990000000     0.734930000000     0.874600000000    -0.0864542  
C416     C      0.383340000000     0.754880000000     0.880870000000     0.0738333  
C417     C      0.363320000000     0.745260000000     0.908950000000     0.073924   
C418     C      0.376850000000     0.698330000000     0.878650000000     0.0358189  
C419     C      0.377360000000     0.682460000000     0.892580000000    -0.0857184  
C420     C      0.380340000000     0.662720000000     0.885820000000     0.0733727  
C421     C      0.382050000000     0.673890000000     0.851880000000     0.0744367  
C422     C      0.378620000000     0.693650000000     0.858030000000    -0.0866848  
C423     C      0.389160000000     0.513830000000     0.873490000000    -0.0865651  
C424     C      0.368450000000     0.509310000000     0.874310000000     0.0357662  
C425     C      0.354520000000     0.525210000000     0.872350000000    -0.0856989  
C426     C      0.361410000000     0.544740000000     0.868860000000     0.0734346  
C427     C      0.395450000000     0.533350000000     0.869440000000     0.0743268  
C428     C      0.361590000000     0.488060000000     0.876180000000     0.0357105  
C429     C      0.373110000000     0.472380000000     0.867700000000    -0.0863419  
C430     C      0.366590000000     0.452570000000     0.869240000000     0.0739773  
C431     C      0.337060000000     0.463120000000     0.886790000000     0.0736261  
C432     C      0.343370000000     0.483140000000     0.885920000000    -0.0855692  
C433     C      0.109080000000     0.974710000000     0.882980000000    -0.0864173  
C434     C      0.121360000000     0.990280000000     0.875880000000     0.0343451  
C435     C      0.141380000000     0.985730000000     0.870370000000    -0.0854022  
C436     C      0.148460000000     0.965910000000     0.871470000000     0.0724256  
C437     C      0.116610000000     0.955120000000     0.883800000000     0.0734569  
C438     C      0.112910000000     0.010870000000     0.873240000000     0.0370483  
C439     C      0.093240000000     0.013540000000     0.865780000000    -0.0869269  
C440     C      0.085750000000     0.032830000000     0.862270000000     0.0739802  
C441     C      0.116460000000     0.047130000000     0.873810000000     0.0740821  
C442     C      0.124470000000     0.027990000000     0.877500000000    -0.0864786  
C443     C      0.291350000000     0.862450000000     0.880940000000    -0.0859591  
C444     C      0.274240000000     0.851190000000     0.886170000000     0.0358477  
C445     C      0.277190000000     0.832380000000     0.895200000000    -0.08652    
C446     C      0.296730000000     0.825440000000     0.899160000000     0.0738817  
C447     C      0.310740000000     0.855070000000     0.885240000000     0.0737714  
C448     C      0.253380000000     0.859120000000     0.882900000000     0.0359041  
C449     C      0.248800000000     0.879500000000     0.886060000000    -0.0856928  
C450     C      0.228820000000     0.886340000000     0.884280000000     0.0737744  
C451     C      0.217840000000     0.853470000000     0.876020000000     0.0748023  
C452     C      0.237610000000     0.846170000000     0.877480000000    -0.0867885  
C453     C      0.372630000000     0.593710000000     0.711200000000    -0.0864196  
C454     C      0.361960000000     0.586660000000     0.728070000000     0.0361288  
C455     C      0.344060000000     0.575910000000     0.724810000000    -0.0867551  
C456     C      0.337290000000     0.572340000000     0.705160000000     0.0746011  
C457     C      0.365410000000     0.589850000000     0.691720000000     0.0746696  
C458     C      0.369390000000     0.590390000000     0.748970000000     0.0355364  
C459     C      0.390060000000     0.589060000000     0.753650000000    -0.0855972  
C460     C      0.396560000000     0.591970000000     0.773560000000     0.0727699  
C461     C      0.362740000000     0.597730000000     0.784250000000     0.0739174  
C462     C      0.355740000000     0.594950000000     0.764560000000    -0.0864637  
C463     C      0.362180000000     0.617410000000     0.560430000000    -0.08615    
C464     C      0.362770000000     0.605730000000     0.542760000000     0.0354542  
C465     C      0.358230000000     0.585240000000     0.544180000000    -0.0864732  
C466     C      0.352730000000     0.577010000000     0.562740000000     0.0727465  
C467     C      0.356680000000     0.608640000000     0.578820000000     0.0725502  
C468     C      0.366910000000     0.614880000000     0.522700000000     0.0356167  
C469     C      0.358190000000     0.633350000000     0.517370000000    -0.0860683  
C470     C      0.359970000000     0.640420000000     0.497570000000     0.0738044  
C471     C      0.379790000000     0.611980000000     0.488490000000     0.073039   
C472     C      0.378330000000     0.604490000000     0.508120000000    -0.0865362  
C473     C      0.243700000000     0.576780000000     0.407960000000    -0.0866025  
C474     C      0.253560000000     0.590000000000     0.394810000000     0.0355655  
C475     C      0.243410000000     0.596330000000     0.377380000000    -0.0864611  
C476     C      0.223520000000     0.590180000000     0.373900000000     0.0734366  
C477     C      0.223880000000     0.570760000000     0.403910000000     0.0729238  
C478     C      0.273780000000     0.598180000000     0.399890000000     0.035712   
C479     C      0.277700000000     0.605280000000     0.419430000000    -0.0868076  
C480     C      0.296280000000     0.614130000000     0.423830000000     0.0733975  
C481     C      0.307540000000     0.608570000000     0.390200000000     0.0736821  
C482     C      0.288990000000     0.599830000000     0.385200000000    -0.0865627  
C483     C      0.134980000000     0.635760000000     0.496480000000    -0.0864925  
C484     C      0.119890000000     0.623540000000     0.488160000000     0.0359852  
C485     C      0.103230000000     0.618540000000     0.500270000000    -0.0865872  
C486     C      0.102460000000     0.624840000000     0.520420000000     0.0740403  
C487     C      0.133720000000     0.641800000000     0.516700000000     0.0751287  
C488     C      0.122360000000     0.614760000000     0.467570000000     0.0356116  
C489     C      0.130830000000     0.625910000000     0.451750000000    -0.0864627  
C490     C      0.135050000000     0.616630000000     0.433200000000     0.0730709  
C491     C      0.121970000000     0.585810000000     0.445280000000     0.0736151  
C492     C      0.117520000000     0.594590000000     0.463960000000    -0.0864648  
C493     C      0.036340000000     0.637580000000     0.633400000000    -0.0871143  
C494     C      0.029580000000     0.617700000000     0.632760000000     0.0360563  
C495     C      0.042260000000     0.602960000000     0.624320000000    -0.086867   
C496     C      0.061200000000     0.608330000000     0.616570000000     0.0735279  
C497     C      0.055170000000     0.642460000000     0.625230000000     0.0736634  
C498     C      0.009020000000     0.612680000000     0.640170000000     0.0347364  
C499     C      0.002010000000     0.620140000000     0.658740000000    -0.0870786  
C500     C      0.982100000000     0.616510000000     0.664800000000     0.0739338  
C501     C      0.975930000000     0.598240000000     0.634600000000     0.0731569  
C502     C      0.995840000000     0.601320000000     0.628220000000    -0.0850022  
C503     C      0.199240000000     0.593220000000     0.599870000000    -0.0864798  
C504     C      0.208350000000     0.598020000000     0.618350000000     0.0355199  
C505     C      0.197710000000     0.610280000000     0.632010000000    -0.0864868  
C506     C      0.178720000000     0.617990000000     0.626750000000     0.0729881  
C507     C      0.180350000000     0.601370000000     0.595010000000     0.073091   
C508     C      0.229340000000     0.591290000000     0.622760000000     0.0354761  
C509     C      0.235620000000     0.571580000000     0.618570000000    -0.0863377  
C510     C      0.255830000000     0.566000000000     0.621570000000     0.0724584  
C511     C      0.263690000000     0.598910000000     0.632830000000     0.0731795  
C512     C      0.243580000000     0.604930000000     0.630250000000    -0.0865653  
C513     C      0.693670000000     0.353830000000     0.625790000000    -0.0861024  
C514     C      0.711420000000     0.344540000000     0.618720000000     0.0359303  
C515     C      0.709670000000     0.326920000000     0.607210000000    -0.0865574  
C516     C      0.690600000000     0.319150000000     0.602800000000     0.0741252  
C517     C      0.674790000000     0.345610000000     0.621100000000     0.0741625  
C518     C      0.731670000000     0.353270000000     0.622930000000     0.0358289  
C519     C      0.734860000000     0.374070000000     0.621960000000    -0.0858084  
C520     C      0.754300000000     0.381820000000     0.624820000000     0.0735727  
C521     C      0.767380000000     0.349010000000     0.630050000000     0.0744635  
C522     C      0.748200000000     0.340770000000     0.627310000000    -0.0867645  
C523     C      0.376260000000     0.358410000000     0.802590000000    -0.0859159  
C524     C      0.365050000000     0.363750000000     0.785420000000     0.0357591  
C525     C      0.346130000000     0.372970000000     0.788210000000    -0.086617   
C526     C      0.338920000000     0.376810000000     0.807660000000     0.0737184  
C527     C      0.368560000000     0.362510000000     0.821910000000     0.0735346  
C528     C      0.372960000000     0.360070000000     0.764650000000     0.0357186  
C529     C      0.393390000000     0.363250000000     0.759860000000    -0.0855604  
C530     C      0.400100000000     0.360960000000     0.739880000000     0.0726242  
C531     C      0.367010000000     0.352070000000     0.729430000000     0.0744499  
C532     C      0.359840000000     0.354100000000     0.749160000000    -0.0868859  
C533     C      0.541150000000     0.340820000000     0.636730000000    -0.0858783  
C534     C      0.523830000000     0.334620000000     0.626230000000     0.0356154  
C535     C      0.526380000000     0.323830000000     0.608180000000    -0.0864828  
C536     C      0.545780000000     0.319420000000     0.601040000000     0.0731929  
C537     C      0.560400000000     0.336130000000     0.629120000000     0.0731128  
C538     C      0.503140000000     0.339170000000     0.633980000000     0.0357023  
C539     C      0.498510000000     0.337710000000     0.654630000000    -0.0856849  
C540     C      0.478630000000     0.340920000000     0.661310000000     0.0727485  
C541     C      0.467970000000     0.347420000000     0.627740000000     0.0741777  
C542     C      0.487610000000     0.344380000000     0.620570000000    -0.0867179  
C543     C      0.356970000000     0.429560000000     0.642320000000    -0.0854898  
C544     C      0.370580000000     0.445620000000     0.640560000000     0.0357189  
C545     C      0.391370000000     0.441340000000     0.641850000000    -0.0864284  
C546     C      0.398000000000     0.421860000000     0.645930000000     0.0741546  
C547     C      0.364200000000     0.410090000000     0.645840000000     0.0730835  
C548     C      0.363280000000     0.466780000000     0.638190000000     0.0356907  
C549     C      0.345080000000     0.471260000000     0.628160000000    -0.0853175  
C550     C      0.338340000000     0.491170000000     0.626740000000     0.0734991  
C551     C      0.367440000000     0.502510000000     0.644220000000     0.0740558  
C552     C      0.374360000000     0.482810000000     0.646350000000    -0.0861635  
C553     C      0.385950000000     0.845920000000     0.249990000000    -0.0856994  
C554     C      0.369260000000     0.858230000000     0.245370000000     0.035769   
C555     C      0.359550000000     0.868380000000     0.261310000000    -0.0866545  
C556     C      0.366210000000     0.865880000000     0.281100000000     0.0740672  
C557     C      0.392470000000     0.844060000000     0.270050000000     0.073596   
C558     C      0.362020000000     0.860870000000     0.224180000000     0.0355988  
C559     C      0.375530000000     0.860920000000     0.207760000000    -0.0855314  
C560     C      0.368430000000     0.864940000000     0.188250000000     0.0731143  
C561     C      0.334950000000     0.868630000000     0.200710000000     0.074246   
C562     C      0.341410000000     0.864210000000     0.220240000000    -0.0865616  
C563     C      0.484420000000     0.828800000000     0.383860000000    -0.0863596  
C564     C      0.500400000000     0.838150000000     0.373590000000     0.0355139  
C565     C      0.495720000000     0.849630000000     0.356420000000    -0.0854898  
C566     C      0.475590000000     0.851630000000     0.350090000000     0.0730647  
C567     C      0.464530000000     0.831450000000     0.377370000000     0.0734048  
C568     C      0.521680000000     0.835730000000     0.380880000000     0.0355986  
C569     C      0.525700000000     0.833420000000     0.401570000000    -0.0864679  
C570     C      0.545350000000     0.829520000000     0.408180000000     0.0742157  
C571     C      0.557740000000     0.831620000000     0.374620000000     0.0728521  
C572     C      0.538120000000     0.835100000000     0.367380000000    -0.0855117  
C573     C      0.371160000000     0.762700000000     0.361840000000    -0.0862661  
C574     C      0.365540000000     0.761190000000     0.382220000000     0.0357098  
C575     C      0.364740000000     0.778790000000     0.393900000000    -0.0864098  
C576     C      0.370170000000     0.797180000000     0.385340000000     0.0741377  
C577     C      0.376570000000     0.781290000000     0.353820000000     0.0732503  
C578     C      0.361860000000     0.741180000000     0.391410000000     0.0358491  
C579     C      0.351440000000     0.726230000000     0.380740000000    -0.0866142  
C580     C      0.350140000000     0.706840000000     0.388630000000     0.0737657  
C581     C      0.368430000000     0.716800000000     0.417770000000     0.0746012  
C582     C      0.369960000000     0.736380000000     0.410370000000    -0.0862174  
C583     C      0.388640000000     0.941190000000     0.362000000000    -0.0863701  
C584     C      0.369460000000     0.944530000000     0.370520000000     0.0355857  
C585     C      0.357790000000     0.927790000000     0.375810000000    -0.0860247  
C586     C      0.365170000000     0.908380000000     0.372100000000     0.0738515  
C587     C      0.395550000000     0.921630000000     0.358590000000     0.0736225  
C588     C      0.361640000000     0.965380000000     0.373370000000     0.03592    
C589     C      0.374740000000     0.980880000000     0.379100000000    -0.0880516  
C590     C      0.367590000000     0.000580000000     0.380460000000     0.0755645  
C591     C      0.334590000000     0.990120000000     0.371340000000     0.0720136  
C592     C      0.341270000000     0.970190000000     0.369680000000    -0.0856419  
C593     C      0.854980000000     0.025570000000     0.367440000000    -0.0857662  
C594     C      0.868370000000     0.009140000000     0.368520000000     0.0368315  
C595     C      0.889190000000     0.012900000000     0.366910000000    -0.08695    
C596     C      0.896070000000     0.032280000000     0.363140000000     0.0744934  
C597     C      0.862480000000     0.044920000000     0.364080000000     0.0729268  
C598     C      0.860840000000     0.988130000000     0.370450000000     0.0344104  
C599     C      0.843310000000     0.983580000000     0.381540000000    -0.0851551  
C600     C      0.836640000000     0.963680000000     0.382860000000     0.0730275  
C601     C      0.864310000000     0.952630000000     0.362780000000     0.0737344  
C602     C      0.871180000000     0.972280000000     0.360870000000    -0.0861791  
C603     C      0.734520000000     0.874870000000     0.376490000000    -0.0855332  
C604     C      0.730580000000     0.856840000000     0.386720000000     0.0355544  
C605     C      0.747030000000     0.846350000000     0.395040000000    -0.086362   
C606     C      0.766660000000     0.853550000000     0.392690000000     0.0736037  
C607     C      0.754420000000     0.881850000000     0.374740000000     0.072961   
C608     C      0.709560000000     0.848930000000     0.388980000000     0.0354977  
C609     C      0.692840000000     0.861870000000     0.391210000000    -0.0854416  
C610     C      0.673540000000     0.853970000000     0.394750000000     0.0725983  
C611     C      0.686790000000     0.820840000000     0.393640000000     0.0740676  
C612     C      0.706120000000     0.828150000000     0.389660000000    -0.086414   
C613     C      0.868530000000     0.842950000000     0.448470000000    -0.0860478  
C614     C      0.865210000000     0.853510000000     0.466550000000     0.0356146  
C615     C      0.856280000000     0.872630000000     0.465540000000    -0.086171   
C616     C      0.850350000000     0.880470000000     0.446920000000     0.0733025  
C617     C      0.862440000000     0.851280000000     0.430070000000     0.0738727  
C618     C      0.870030000000     0.844360000000     0.486470000000     0.0359735  
C619     C      0.865710000000     0.824110000000     0.490260000000    -0.0861815  
C620     C      0.868430000000     0.816260000000     0.509650000000     0.074531   
C621     C      0.880390000000     0.847710000000     0.521440000000     0.0740351  
C622     C      0.877860000000     0.856050000000     0.502260000000    -0.0867754  
C623     C      0.611770000000     0.271250000000     0.123250000000    -0.0861333  
C624     C      0.604360000000     0.254330000000     0.133360000000     0.0360764  
C625     C      0.593530000000     0.257240000000     0.151380000000    -0.0868179  
C626     C      0.590160000000     0.276620000000     0.158770000000     0.0745164  
C627     C      0.608100000000     0.290480000000     0.131090000000     0.0742698  
C628     C      0.607680000000     0.233710000000     0.125230000000     0.0356216  
C629     C      0.606120000000     0.229610000000     0.104470000000    -0.0856128  
C630     C      0.608300000000     0.209880000000     0.097380000000     0.0726603  
C631     C      0.613870000000     0.198280000000     0.130780000000     0.0742102  
C632     C      0.611840000000     0.217750000000     0.138350000000    -0.0866697  
C633     C      0.609640000000     0.477420000000     0.128160000000    -0.0869026  
C634     C      0.623160000000     0.461950000000     0.133210000000     0.0358931  
C635     C      0.643830000000     0.466500000000     0.134640000000    -0.0859036  
C636     C      0.650360000000     0.486280000000     0.131870000000     0.0733867  
C637     C      0.616660000000     0.496970000000     0.125680000000     0.0746389  
C638     C      0.615480000000     0.441530000000     0.138020000000     0.0355045  
C639     C      0.597390000000     0.439340000000     0.148870000000    -0.0865485  
C640     C      0.590430000000     0.420260000000     0.153850000000     0.073346   
C641     C      0.618740000000     0.405190000000     0.137640000000     0.0727146  
C642     C      0.626160000000     0.424130000000     0.132330000000    -0.0857344  
C643     C      0.627150000000     0.596490000000     0.998220000000    -0.085898   
C644     C      0.626090000000     0.609930000000     0.014570000000     0.0352575  
C645     C      0.622900000000     0.630370000000     0.010410000000    -0.0854212  
C646     C      0.620880000000     0.636860000000     0.990380000000     0.0726502  
C647     C      0.624840000000     0.603440000000     0.978480000000     0.0732289  
C648     C      0.628650000000     0.602510000000     0.035700000000     0.0355805  
C649     C      0.621560000000     0.583460000000     0.041180000000    -0.0862789  
C650     C      0.625630000000     0.575810000000     0.060370000000     0.073497   
C651     C      0.642390000000     0.605870000000     0.069590000000     0.0726194  
C652     C      0.638850000000     0.613900000000     0.050360000000    -0.0856134  
C653     C      0.747310000000     0.380880000000     0.396170000000    -0.0858131  
C654     C      0.752680000000     0.361060000000     0.391180000000     0.0355305  
C655     C      0.738000000000     0.348640000000     0.382510000000    -0.0868761  
C656     C      0.718380000000     0.355820000000     0.379610000000     0.07379    
C657     C      0.727410000000     0.387580000000     0.393130000000     0.0723515  
C658     C      0.773150000000     0.352950000000     0.395730000000     0.0357286  
C659     C      0.790670000000     0.363990000000     0.391580000000    -0.0860886  
C660     C      0.809730000000     0.355800000000     0.395970000000     0.073078   
C661     C      0.794450000000     0.326260000000     0.408710000000     0.0738902  
C662     C      0.775250000000     0.333870000000     0.404380000000    -0.0869221  
C663     C      0.626490000000     0.374050000000     0.469930000000    -0.0860309  
C664     C      0.627100000000     0.353270000000     0.473520000000     0.0355226  
C665     C      0.630970000000     0.340460000000     0.457020000000    -0.0854833  
C666     C      0.634640000000     0.348480000000     0.437850000000     0.0728483  
C667     C      0.630760000000     0.381540000000     0.450730000000     0.0736285  
C668     C      0.624540000000     0.345180000000     0.494440000000     0.035658   
C669     C      0.630840000000     0.356420000000     0.511270000000    -0.0860708  
C670     C      0.628720000000     0.348710000000     0.530730000000     0.0736312  
C671     C      0.614850000000     0.318610000000     0.517610000000     0.0733215  
C672     C      0.616300000000     0.326070000000     0.497900000000    -0.0854563  
C673     C      0.637350000000     0.376060000000     0.289200000000    -0.0868851  
C674     C      0.620600000000     0.363460000000     0.286710000000     0.0360611  
C675     C      0.610740000000     0.356360000000     0.304050000000    -0.086099   
C676     C      0.617660000000     0.361930000000     0.323240000000     0.0738284  
C677     C      0.643880000000     0.381250000000     0.308550000000     0.0746294  
C678     C      0.613360000000     0.358230000000     0.266070000000     0.0357087  
C679     C      0.592620000000     0.357390000000     0.261680000000    -0.0859021  
C680     C      0.586200000000     0.354010000000     0.241830000000     0.0733788  
C681     C      0.620250000000     0.351670000000     0.230660000000     0.0737993  
C682     C      0.627190000000     0.354880000000     0.250310000000    -0.0866137  
C683     C      0.487170000000     0.599180000000     0.380000000000    -0.0866352  
C684     C      0.473570000000     0.611080000000     0.369050000000     0.0355498  
C685     C      0.479740000000     0.618910000000     0.350430000000    -0.086872   
C686     C      0.499350000000     0.615170000000     0.343370000000     0.073306   
C687     C      0.506790000000     0.596080000000     0.372680000000     0.0733261  
C688     C      0.453530000000     0.616380000000     0.377620000000     0.0358076  
C689     C      0.440480000000     0.601570000000     0.384930000000    -0.0867642  
C690     C      0.421940000000     0.607130000000     0.393610000000     0.0737717  
C691     C      0.429280000000     0.641580000000     0.388350000000     0.0733739  
C692     C      0.447670000000     0.636540000000     0.379210000000    -0.0869708  
C693     C      0.586320000000     0.590610000000     0.243830000000    -0.0860779  
C694     C      0.607110000000     0.591750000000     0.239840000000     0.0357185  
C695     C      0.620190000000     0.596540000000     0.255770000000    -0.0868526  
C696     C      0.612510000000     0.599440000000     0.275230000000     0.0739627  
C697     C      0.579150000000     0.593460000000     0.263550000000     0.0735168  
C698     C      0.615360000000     0.586900000000     0.219490000000     0.035947   
C699     C      0.632330000000     0.574350000000     0.217630000000    -0.0872365  
C700     C      0.639870000000     0.569450000000     0.198550000000     0.0749666  
C701     C      0.614460000000     0.589290000000     0.182910000000     0.0731905  
C702     C      0.606350000000     0.594360000000     0.201850000000    -0.0862617  
C703     C      0.604770000000     0.471960000000     0.373250000000    -0.0866666  
C704     C      0.617860000000     0.487970000000     0.369220000000     0.0357815  
C705     C      0.638780000000     0.484250000000     0.369370000000    -0.0857597  
C706     C      0.646080000000     0.464800000000     0.372870000000     0.0733769  
C707     C      0.612580000000     0.452760000000     0.376660000000     0.0742838  
C708     C      0.609610000000     0.508210000000     0.364210000000     0.035664   
C709     C      0.592460000000     0.510090000000     0.351900000000    -0.0864075  
C710     C      0.584900000000     0.529080000000     0.347060000000     0.0738999  
C711     C      0.610790000000     0.544590000000     0.366270000000     0.07316    
C712     C      0.618790000000     0.525780000000     0.371410000000    -0.085753   
C713     C      0.603250000000     0.675590000000     0.386670000000    -0.0856058  
C714     C      0.598890000000     0.693080000000     0.375710000000     0.0355209  
C715     C      0.589410000000     0.691110000000     0.356880000000    -0.086606   
C716     C      0.584620000000     0.672140000000     0.349380000000     0.0736651  
C717     C      0.598220000000     0.656750000000     0.378670000000     0.0724401  
C718     C      0.604000000000     0.713370000000     0.383680000000     0.035697   
C719     C      0.601020000000     0.718370000000     0.404090000000    -0.0857077  
C720     C      0.604590000000     0.738030000000     0.410790000000     0.0726838  
C721     C      0.614550000000     0.747650000000     0.377780000000     0.0740869  
C722     C      0.611220000000     0.728230000000     0.370610000000    -0.0867479  
C723     C      0.855080000000     0.852770000000     0.245810000000    -0.0867015  
C724     C      0.868410000000     0.858000000000     0.261390000000     0.0357035  
C725     C      0.889020000000     0.860090000000     0.256720000000    -0.08565    
C726     C      0.895730000000     0.857420000000     0.236800000000     0.0728318  
C727     C      0.862270000000     0.850340000000     0.226120000000     0.0742112  
C728     C      0.860640000000     0.861960000000     0.282180000000     0.0358307  
C729     C      0.842130000000     0.871960000000     0.285060000000    -0.0865048  
C730     C      0.835230000000     0.876190000000     0.304560000000     0.0738052  
C731     C      0.864340000000     0.860700000000     0.318630000000     0.0738435  
C732     C      0.871700000000     0.856170000000     0.299300000000    -0.0860819  
C733     C      0.871390000000     0.979530000000     0.146590000000    -0.0856767  
C734     C      0.860440000000     0.964070000000     0.137240000000     0.0351907  
C735     C      0.842740000000     0.969230000000     0.126690000000    -0.0852843  
C736     C      0.836480000000     0.989330000000     0.125710000000     0.0727469  
C737     C      0.864960000000     0.999400000000     0.144930000000     0.0717667  
C738     C      0.867460000000     0.942790000000     0.138870000000     0.0360704  
C739     C      0.888180000000     0.938310000000     0.140280000000    -0.0868967  
C740     C      0.894580000000     0.918670000000     0.143850000000     0.0745963  
C741     C      0.860690000000     0.907200000000     0.142900000000     0.0735077  
C742     C      0.853670000000     0.926820000000     0.139840000000    -0.0860303  
C743     C      0.484670000000     0.847140000000     0.847850000000    -0.0856181  
C744     C      0.480530000000     0.852870000000     0.867860000000     0.0354153  
C745     C      0.496380000000     0.860640000000     0.879530000000    -0.086343   
C746     C      0.515900000000     0.861660000000     0.871510000000     0.0727717  
C747     C      0.504400000000     0.848430000000     0.840270000000     0.0729835  
C748     C      0.460180000000     0.849570000000     0.876930000000     0.0357155  
C749     C      0.442440000000     0.852670000000     0.865730000000    -0.086062   
C750     C      0.423610000000     0.848010000000     0.874160000000     0.0737134  
C751     C      0.439380000000     0.837840000000     0.904660000000     0.0733914  
C752     C      0.458400000000     0.842330000000     0.896730000000    -0.08624    
C753     C      0.613580000000     0.775220000000     0.877920000000    -0.0859859  
C754     C      0.603460000000     0.758050000000     0.871050000000     0.0356315  
C755     C      0.588370000000     0.760340000000     0.856370000000    -0.0866428  
C756     C      0.583740000000     0.779360000000     0.848870000000     0.0736217  
C757     C      0.608610000000     0.794070000000     0.869990000000     0.0730741  
C758     C      0.608330000000     0.737790000000     0.879140000000     0.0358254  
C759     C      0.609220000000     0.721140000000     0.866160000000    -0.0868219  
C760     C      0.612330000000     0.701960000000     0.874010000000     0.0738938  
C761     C      0.614370000000     0.715260000000     0.907240000000     0.0734924  
C762     C      0.611330000000     0.734730000000     0.899880000000    -0.0861377  
C763     C      0.751520000000     0.851710000000     0.629030000000    -0.086797   
C764     C      0.763190000000     0.859600000000     0.613320000000     0.0355511  
C765     C      0.755180000000     0.875220000000     0.601650000000    -0.0870345  
C766     C      0.735640000000     0.882350000000     0.605560000000     0.0730393  
C767     C      0.731850000000     0.858880000000     0.632220000000     0.0732043  
C768     C      0.783110000000     0.850720000000     0.608270000000     0.0357656  
C769     C      0.798490000000     0.849410000000     0.622740000000    -0.086728   
C770     C      0.817110000000     0.840700000000     0.617530000000     0.0735777  
C771     C      0.805210000000     0.833990000000     0.584360000000     0.0734807  
C772     C      0.786650000000     0.843020000000     0.588900000000    -0.0871833  
C773     C      0.635010000000     0.837850000000     0.551190000000    -0.0856737  
C774     C      0.635600000000     0.849820000000     0.533780000000     0.0355008  
C775     C      0.641490000000     0.869930000000     0.535820000000    -0.0865729  
C776     C      0.646530000000     0.877630000000     0.554750000000     0.0738266  
C777     C      0.640240000000     0.846070000000     0.569980000000     0.0722968  
C778     C      0.630360000000     0.841580000000     0.513500000000     0.0355207  
C779     C      0.636360000000     0.822170000000     0.507590000000    -0.0855618  
C780     C      0.632540000000     0.815440000000     0.487880000000     0.0725265  
C781     C      0.616560000000     0.846390000000     0.479940000000     0.074064   
C782     C      0.619970000000     0.853510000000     0.499470000000    -0.0865448  
C783     C      0.615160000000     0.854370000000     0.698400000000    -0.0860387  
C784     C      0.624880000000     0.859540000000     0.716490000000     0.0357255  
C785     C      0.643200000000     0.870000000000     0.715430000000    -0.0866422  
C786     C      0.651230000000     0.875300000000     0.696690000000     0.0742958  
C787     C      0.623720000000     0.859810000000     0.679850000000     0.0733638  
C788     C      0.615770000000     0.854770000000     0.736450000000     0.0359438  
C789     C      0.595060000000     0.857810000000     0.740020000000    -0.0862425  
C790     C      0.587180000000     0.855170000000     0.759460000000     0.0742053  
C791     C      0.619560000000     0.845660000000     0.771670000000     0.0741619  
C792     C      0.627940000000     0.848210000000     0.752470000000    -0.0868603  
C793     C      0.004340000000     0.840460000000     0.614900000000    -0.0876361  
C794     C      0.987990000000     0.838990000000     0.628300000000     0.0360752  
C795     C      0.991490000000     0.842150000000     0.648970000000    -0.0853876  
C796     C      0.011130000000     0.846050000000     0.655820000000     0.0720703  
C797     C      0.023680000000     0.844450000000     0.622240000000     0.0735519  
C798     C      0.967600000000     0.833550000000     0.620680000000     0.0356532  
C799     C      0.950130000000     0.843360000000     0.627720000000    -0.0859677  
C800     C      0.931170000000     0.838090000000     0.619970000000     0.0729362  
C801     C      0.946390000000     0.813430000000     0.598820000000     0.0737469  
C802     C      0.965510000000     0.818380000000     0.606120000000    -0.0868468  
C803     C      0.097770000000     0.852520000000     0.756660000000    -0.0855228  
C804     C      0.115280000000     0.863490000000     0.761310000000     0.0357579  
C805     C      0.126260000000     0.871880000000     0.745270000000    -0.0863924  
C806     C      0.120000000000     0.868980000000     0.725390000000     0.0740109  
C807     C      0.091670000000     0.850290000000     0.736510000000     0.0736336  
C808     C      0.122100000000     0.866500000000     0.782630000000     0.0356321  
C809     C      0.108180000000     0.868080000000     0.798660000000    -0.0853863  
C810     C      0.115000000000     0.872130000000     0.818280000000     0.0727169  
C811     C      0.148940000000     0.873080000000     0.806680000000     0.0743251  
C812     C      0.142750000000     0.868530000000     0.787080000000    -0.0866012  
C813     C      0.135460000000     0.729410000000     0.627010000000    -0.0867412  
C814     C      0.124330000000     0.743840000000     0.616330000000     0.0357759  
C815     C      0.115410000000     0.738260000000     0.597950000000    -0.0863812  
C816     C      0.116720000000     0.718350000000     0.591280000000     0.0741732  
C817     C      0.136590000000     0.709690000000     0.619820000000     0.0735774  
C818     C      0.120540000000     0.764050000000     0.625140000000     0.0355935  
C819     C      0.114830000000     0.765970000000     0.645460000000    -0.0866073  
C820     C      0.109290000000     0.784730000000     0.653190000000     0.0731155  
C821     C      0.115870000000     0.799990000000     0.621520000000     0.0730877  
C822     C      0.121300000000     0.781370000000     0.613200000000    -0.086449   
C823     C      0.095960000000     0.946200000000     0.650720000000    -0.0868251  
C824     C      0.114480000000     0.950060000000     0.641140000000     0.0358632  
C825     C      0.126090000000     0.933680000000     0.634340000000    -0.0862033  
C826     C      0.119280000000     0.914080000000     0.637490000000     0.0744277  
C827     C      0.089600000000     0.926460000000     0.653540000000     0.0743985  
C828     C      0.121640000000     0.971060000000     0.638570000000     0.0359674  
C829     C      0.107910000000     0.986490000000     0.634020000000    -0.0879458  
C830     C      0.114600000000     0.006270000000     0.632590000000     0.0755758  
C831     C      0.148290000000     0.996000000000     0.639540000000     0.0721783  
C832     C      0.142090000000     0.976010000000     0.641190000000    -0.0857887  
C833     C      0.347360000000     0.096510000000     0.510840000000    -0.0866555  
C834     C      0.357350000000     0.106090000000     0.494840000000     0.035861   
C835     C      0.369310000000     0.122910000000     0.499330000000    -0.0857638  
C836     C      0.371030000000     0.129650000000     0.519320000000     0.0737197  
C837     C      0.349780000000     0.103360000000     0.530590000000     0.0742738  
C838     C      0.354970000000     0.098530000000     0.473700000000     0.0359808  
C839     C      0.351960000000     0.078000000000     0.469990000000    -0.0868536  
C840     C      0.347840000000     0.071230000000     0.450490000000     0.0748285  
C841     C      0.351280000000     0.104240000000     0.437640000000     0.0735475  
C842     C      0.354940000000     0.111660000000     0.457120000000    -0.0857758  
C843     C      0.365150000000     0.232070000000     0.607130000000    -0.0854835  
C844     C      0.376290000000     0.236570000000     0.624620000000     0.0356844  
C845     C      0.385290000000     0.220580000000     0.635140000000    -0.0864104  
C846     C      0.382730000000     0.200880000000     0.628490000000     0.0739285  
C847     C      0.363280000000     0.212130000000     0.600620000000     0.0736169  
C848     C      0.378810000000     0.257670000000     0.631900000000     0.0357978  
C849     C      0.379820000000     0.273850000000     0.618360000000    -0.0855482  
C850     C      0.383500000000     0.293290000000     0.625570000000     0.0733368  
C851     C      0.385090000000     0.281210000000     0.659200000000     0.0744587  
C852     C      0.380920000000     0.261770000000     0.652610000000    -0.0866055  
C853     C      0.245770000000     0.080080000000     0.621290000000    -0.0856134  
C854     C      0.250640000000     0.100270000000     0.624850000000     0.0358101  
C855     C      0.235120000000     0.113470000000     0.630740000000    -0.0867992  
C856     C      0.215290000000     0.106600000000     0.632350000000     0.0743403  
C857     C      0.225710000000     0.073660000000     0.623180000000     0.0728165  
C858     C      0.271560000000     0.107820000000     0.621560000000     0.0358353  
C859     C      0.288560000000     0.096260000000     0.626770000000    -0.0859376  
C860     C      0.308020000000     0.103390000000     0.622620000000     0.0738023  
C861     C      0.294260000000     0.133280000000     0.608750000000     0.0740035  
C862     C      0.274670000000     0.126630000000     0.612630000000    -0.0865886  
C863     C      0.456190000000     0.113350000000     0.607670000000    -0.086477   
C864     C      0.458280000000     0.103920000000     0.626480000000     0.0358624  
C865     C      0.440710000000     0.099870000000     0.637650000000    -0.0859673  
C866     C      0.421760000000     0.105640000000     0.630160000000     0.073661   
C867     C      0.437070000000     0.118810000000     0.600640000000     0.0738919  
C868     C      0.478800000000     0.099230000000     0.634540000000     0.0355914  
C869     C      0.494390000000     0.093050000000     0.621490000000    -0.0864943  
C870     C      0.514110000000     0.091060000000     0.628700000000     0.0739304  
C871     C      0.503340000000     0.099780000000     0.661800000000     0.0730635  
C872     C      0.483410000000     0.102120000000     0.655040000000    -0.0854824  
C873     C      0.652400000000     0.982770000000     0.636990000000    -0.0855163  
C874     C      0.631650000000     0.987320000000     0.636230000000     0.034525   
C875     C      0.618060000000     0.971570000000     0.632800000000    -0.0861043  
C876     C      0.625210000000     0.951970000000     0.630230000000     0.0738173  
C877     C      0.659040000000     0.962910000000     0.634470000000     0.0730214  
C878     C      0.624010000000     0.008210000000     0.639460000000     0.0366253  
C879     C      0.632970000000     0.020990000000     0.653750000000    -0.0860356  
C880     C      0.624490000000     0.039920000000     0.657690000000     0.0729886  
C881     C      0.598880000000     0.034150000000     0.633320000000     0.0730419  
C882     C      0.607050000000     0.015270000000     0.628870000000    -0.0863352  
C883     C      0.588860000000     0.187580000000     0.643360000000    -0.0872282  
C884     C      0.604840000000     0.190000000000     0.629680000000     0.0359009  
C885     C      0.615150000000     0.172820000000     0.622790000000    -0.0861231  
C886     C      0.609600000000     0.153830000000     0.629940000000     0.0729755  
C887     C      0.583640000000     0.168480000000     0.650040000000     0.0748797  
C888     C      0.610440000000     0.210450000000     0.622790000000     0.0355641  
C889     C      0.614060000000     0.214530000000     0.602330000000    -0.0858581  
C890     C      0.617280000000     0.234350000000     0.596080000000     0.0728692  
C891     C      0.614440000000     0.245900000000     0.629930000000     0.0737454  
C892     C      0.611120000000     0.226370000000     0.636660000000    -0.0868746  
C893     C      0.772030000000     0.119450000000     0.904850000000    -0.0869965  
C894     C      0.770470000000     0.102460000000     0.892430000000     0.0360779  
C895     C      0.788310000000     0.093200000000     0.885540000000    -0.0862904  
C896     C      0.807120000000     0.101110000000     0.891000000000     0.073817   
C897     C      0.791000000000     0.126890000000     0.910030000000     0.0745352  
C898     C      0.750220000000     0.094510000000     0.886990000000     0.0360129  
C899     C      0.746280000000     0.073830000000     0.887270000000    -0.0861349  
C900     C      0.726620000000     0.066910000000     0.883800000000     0.0738648  
C901     C      0.714940000000     0.100310000000     0.879000000000     0.07482    
C902     C      0.734340000000     0.107720000000     0.882370000000    -0.0870099  
C903     C      0.611590000000     0.938630000000     0.838450000000    -0.0873007  
C904     C      0.620270000000     0.942010000000     0.857410000000     0.0358894  
C905     C      0.620490000000     0.926380000000     0.871520000000    -0.0867891  
C906     C      0.612210000000     0.907750000000     0.866410000000     0.0737344  
C907     C      0.603060000000     0.920010000000     0.834020000000     0.0737626  
C908     C      0.628360000000     0.962050000000     0.862530000000     0.0354524  
C909     C      0.642240000000     0.971480000000     0.849720000000    -0.0868612  
C910     C      0.648430000000     0.991090000000     0.853880000000     0.0725288  
C911     C      0.627500000000     0.992150000000     0.883060000000     0.0729016  
C912     C      0.621320000000     0.972400000000     0.879590000000    -0.0866075  
C913     C      0.596240000000     0.082880000000     0.803800000000    -0.0860143  
C914     C      0.608450000000     0.088660000000     0.787480000000     0.0356266  
C915     C      0.629310000000     0.090540000000     0.790620000000    -0.0867361  
C916     C      0.637590000000     0.086270000000     0.809490000000     0.0742322  
C917     C      0.605060000000     0.078850000000     0.822620000000     0.0725859  
C918     C      0.599890000000     0.092030000000     0.766990000000     0.0360386  
C919     C      0.585750000000     0.078730000000     0.758660000000    -0.0861039  
C920     C      0.579880000000     0.080780000000     0.738440000000     0.073913   
C921     C      0.600860000000     0.109360000000     0.734900000000     0.0749614  
C922     C      0.607020000000     0.107780000000     0.754980000000    -0.0871555  
C923     C      0.622440000000     0.091280000000     0.008340000000    -0.0868755  
C924     C      0.625840000000     0.104760000000     0.992500000000     0.0356679  
C925     C      0.626220000000     0.125380000000     0.996940000000    -0.0854094  
C926     C      0.623840000000     0.131980000000     0.016940000000     0.0724172  
C927     C      0.620150000000     0.098360000000     0.028060000000     0.0742924  
C928     C      0.629790000000     0.097100000000     0.971720000000     0.0359354  
C929     C      0.642040000000     0.080100000000     0.968840000000    -0.0870726  
C930     C      0.645740000000     0.072840000000     0.949410000000     0.0748307  
C931     C      0.625500000000     0.098760000000     0.935330000000     0.0730891  
C932     C      0.621510000000     0.106500000000     0.954660000000    -0.0859026  
C933     C      0.865170000000     0.601940000000     0.954480000000    -0.0868666  
C934     C      0.850040000000     0.605130000000     0.969010000000     0.0359655  
C935     C      0.830060000000     0.600200000000     0.964200000000    -0.087292   
C936     C      0.825610000000     0.591860000000     0.945380000000     0.0739905  
C937     C      0.860110000000     0.593870000000     0.935610000000     0.0740844  
C938     C      0.854980000000     0.612660000000     0.989490000000     0.035823   
C939     C      0.870400000000     0.603630000000     0.000790000000    -0.0870729  
C940     C      0.873320000000     0.609320000000     0.020910000000     0.0738262  
C941     C      0.846940000000     0.633500000000     0.018480000000     0.0729106  
C942     C      0.843390000000     0.627970000000     0.998430000000    -0.0868494  
C943     C      0.881010000000     0.717250000000     0.132860000000    -0.0865905  
C944     C      0.872750000000     0.733140000000     0.121620000000     0.0359422  
C945     C      0.862860000000     0.728490000000     0.103420000000    -0.0855512  
C946     C      0.861540000000     0.708500000000     0.096920000000     0.0735922  
C947     C      0.878960000000     0.697510000000     0.126190000000     0.074892   
C948     C      0.874860000000     0.754320000000     0.128840000000     0.0359027  
C949     C      0.875980000000     0.758610000000     0.149600000000    -0.0866503  
C950     C      0.880010000000     0.778070000000     0.156200000000     0.0746435  
C951     C      0.880000000000     0.789850000000     0.122440000000     0.0736583  
C952     C      0.876570000000     0.770380000000     0.115220000000    -0.0857865  
C953     C      0.791950000000     0.579550000000     0.111670000000    -0.0862494  
C954     C      0.775910000000     0.591740000000     0.118430000000     0.0355858  
C955     C      0.779590000000     0.612240000000     0.121580000000    -0.0867394  
C956     C      0.798650000000     0.620170000000     0.117530000000     0.0736165  
C957     C      0.810890000000     0.588040000000     0.107720000000     0.0726327  
C958     C      0.755200000000     0.583530000000     0.121470000000     0.0357605  
C959     C      0.747060000000     0.569380000000     0.108020000000    -0.0859306  
C960     C      0.726840000000     0.563470000000     0.109980000000     0.0733421  
C961     C      0.722760000000     0.584690000000     0.138570000000     0.0744552  
C962     C      0.742880000000     0.590770000000     0.137170000000    -0.0866895  
C963     C      0.385690000000     0.191060000000     0.150270000000    -0.0865922  
C964     C      0.376590000000     0.193920000000     0.131370000000     0.0357808  
C965     C      0.370960000000     0.176910000000     0.120180000000    -0.0858488  
C966     C      0.374750000000     0.157670000000     0.127840000000     0.0735718  
C967     C      0.389210000000     0.171700000000     0.157450000000     0.0738781  
C968     C      0.373430000000     0.214610000000     0.123450000000     0.0357657  
C969     C      0.367810000000     0.230230000000     0.136570000000    -0.0868922  
C970     C      0.366430000000     0.249860000000     0.129450000000     0.0745747  
C971     C      0.375170000000     0.239070000000     0.096360000000     0.0726308  
C972     C      0.376850000000     0.219180000000     0.103040000000    -0.0854848  
C973     C      0.356810000000     0.325310000000     0.998180000000    -0.0853702  
C974     C      0.360330000000     0.345620000000     0.993790000000     0.0357752  
C975     C      0.366410000000     0.358320000000     0.009540000000    -0.0869655  
C976     C      0.368170000000     0.350920000000     0.029140000000     0.074351   
C977     C      0.358850000000     0.318350000000     0.018030000000     0.0724525  
C978     C      0.356810000000     0.353850000000     0.973200000000     0.035792   
C979     C      0.362110000000     0.342950000000     0.955770000000    -0.0859362  
C980     C      0.358090000000     0.350960000000     0.936630000000     0.0737389  
C981     C      0.344020000000     0.380300000000     0.951570000000     0.0739447  
C982     C      0.347770000000     0.372780000000     0.970840000000    -0.086611   
C983     C      0.457860000000     0.336710000000     0.106090000000    -0.0865455  
C984     C      0.461950000000     0.338170000000     0.126870000000     0.0358321  
C985     C      0.445660000000     0.336160000000     0.140410000000    -0.0855689  
C986     C      0.426180000000     0.332330000000     0.133110000000     0.0735098  
C987     C      0.438400000000     0.332240000000     0.099410000000     0.0747042  
C988     C      0.483130000000     0.341030000000     0.134220000000     0.0357929  
C989     C      0.499590000000     0.333550000000     0.122980000000    -0.0863404  
C990     C      0.519310000000     0.336190000000     0.129880000000     0.074181   
C991     C      0.507220000000     0.352740000000     0.159320000000     0.073735   
C992     C      0.487250000000     0.350880000000     0.152570000000    -0.0854156  
C993     C      0.997010000000     0.347290000000     0.389160000000    -0.0857028  
C994     C      0.981570000000     0.342040000000     0.375670000000     0.0350921  
C995     C      0.986280000000     0.340590000000     0.355020000000    -0.0845524  
C996     C      0.006160000000     0.343830000000     0.348430000000     0.0716631  
C997     C      0.016620000000     0.350370000000     0.382080000000     0.0732558  
C998     C      0.960920000000     0.337510000000     0.383350000000     0.0360164  
C999     C      0.958460000000     0.326720000000     0.401330000000    -0.086793   
C1000    C      0.939110000000     0.322630000000     0.408620000000     0.0740536  
C1001    C      0.924330000000     0.339490000000     0.380740000000     0.0732119  
C1002    C      0.943540000000     0.343860000000     0.372980000000    -0.0858737  
C1003    C      0.093200000000     0.444090000000     0.369630000000    -0.0862771  
C1004    C      0.113980000000     0.448270000000     0.370750000000     0.035579   
C1005    C      0.127650000000     0.432160000000     0.368590000000    -0.0854818  
C1006    C      0.120470000000     0.412760000000     0.364800000000     0.0731019  
C1007    C      0.086620000000     0.424690000000     0.365270000000     0.0740656  
C1008    C      0.121180000000     0.469380000000     0.373330000000     0.0358653  
C1009    C      0.109900000000     0.485460000000     0.365450000000    -0.0864669  
C1010    C      0.116630000000     0.505130000000     0.367790000000     0.0747481  
C1011    C      0.145980000000     0.493700000000     0.384900000000     0.0732965  
C1012    C      0.139430000000     0.473780000000     0.383250000000    -0.0854583  
C1013    C      0.105480000000     0.265020000000     0.357040000000    -0.0866334  
C1014    C      0.107100000000     0.260840000000     0.377750000000     0.0358587  
C1015    C      0.105380000000     0.276950000000     0.391440000000    -0.0857123  
C1016    C      0.101490000000     0.296370000000     0.384350000000     0.0735107  
C1017    C      0.101060000000     0.284440000000     0.350560000000     0.0744519  
C1018    C      0.109730000000     0.239720000000     0.384890000000     0.0356894  
C1019    C      0.101290000000     0.223720000000     0.373950000000    -0.086359   
C1020    C      0.103670000000     0.204040000000     0.380670000000     0.0738503  
C1021    C      0.121940000000     0.215330000000     0.409310000000     0.0736409  
C1022    C      0.120260000000     0.235240000000     0.402760000000    -0.085594   
C1023    C      0.092230000000     0.596540000000     0.260760000000    -0.0858043  
C1024    C      0.113060000000     0.596110000000     0.264810000000     0.0357966  
C1025    C      0.126570000000     0.598540000000     0.248660000000    -0.0868265  
C1026    C      0.119230000000     0.600670000000     0.229020000000     0.0747111  
C1027    C      0.085400000000     0.598740000000     0.240880000000     0.0735976  
C1028    C      0.120780000000     0.592290000000     0.285560000000     0.036251   
C1029    C      0.111460000000     0.600910000000     0.302580000000    -0.0863135  
C1030    C      0.118780000000     0.596590000000     0.321930000000     0.0743263  
C1031    C      0.144350000000     0.575570000000     0.307980000000     0.0755251  
C1032    C      0.137470000000     0.579570000000     0.288490000000    -0.0870285  
C1033    C      0.957640000000     0.621410000000     0.107570000000    -0.0873639  
C1034    C      0.960250000000     0.611660000000     0.126120000000     0.0365519  
C1035    C      0.943020000000     0.605350000000     0.136680000000    -0.0866509  
C1036    C      0.923750000000     0.608950000000     0.128650000000     0.0745808  
C1037    C      0.938230000000     0.624880000000     0.100090000000     0.0756381  
C1038    C      0.980920000000     0.608380000000     0.134290000000     0.034932   
C1039    C      0.996630000000     0.602170000000     0.121470000000    -0.0858158  
C1040    C      0.016300000000     0.600490000000     0.128870000000     0.0728757  
C1041    C      0.005320000000     0.610470000000     0.161570000000     0.0713433  
C1042    C      0.985370000000     0.612240000000     0.154650000000    -0.0846538  
C1043    C      0.119110000000     0.860320000000     0.006960000000    -0.0869718  
C1044    C      0.122960000000     0.847000000000     0.990940000000     0.035826   
C1045    C      0.122790000000     0.826320000000     0.994870000000    -0.0857005  
C1046    C      0.119700000000     0.819460000000     0.014600000000     0.0730822  
C1047    C      0.116180000000     0.852970000000     0.026450000000     0.073837   
C1048    C      0.128140000000     0.854810000000     0.970550000000     0.0359512  
C1049    C      0.121040000000     0.845520000000     0.952890000000    -0.0860237  
C1050    C      0.126420000000     0.853180000000     0.933940000000     0.0735883  
C1051    C      0.145700000000     0.878850000000     0.949570000000     0.0745598  
C1052    C      0.140660000000     0.871620000000     0.968650000000    -0.0869047  
C1053    C      0.107330000000     0.691240000000     0.151640000000    -0.0862975  
C1054    C      0.107010000000     0.695420000000     0.130840000000     0.0356831  
C1055    C      0.103070000000     0.679490000000     0.117450000000    -0.0856128  
C1056    C      0.099070000000     0.660280000000     0.124930000000     0.073151   
C1057    C      0.102650000000     0.672060000000     0.158580000000     0.0740081  
C1058    C      0.109890000000     0.716390000000     0.123370000000     0.0358078  
C1059    C      0.103900000000     0.732890000000     0.135270000000    -0.0863231  
C1060    C      0.106250000000     0.752400000000     0.128090000000     0.0741945  
C1061    C      0.119700000000     0.740010000000     0.097220000000     0.0738176  
C1062    C      0.118100000000     0.720250000000     0.104160000000    -0.0856074  
C1063    C      0.192330000000     0.858910000000     0.121150000000    -0.0858106  
C1064    C      0.209720000000     0.848540000000     0.114690000000     0.0356319  
C1065    C      0.207280000000     0.830670000000     0.103730000000    -0.0867407  
C1066    C      0.187950000000     0.823560000000     0.099470000000     0.0734408  
C1067    C      0.173120000000     0.851330000000     0.116580000000     0.0727444  
C1068    C      0.230390000000     0.856200000000     0.119050000000     0.0356417  
C1069    C      0.234900000000     0.876720000000     0.117650000000    -0.0855944  
C1070    C      0.254810000000     0.883290000000     0.120470000000     0.0727639  
C1071    C      0.265730000000     0.849860000000     0.126490000000     0.0740902  
C1072    C      0.246070000000     0.842810000000     0.123870000000    -0.0867451  
C1073    C      0.994640000000     0.837160000000     0.151320000000    -0.0850513  
C1074    C      0.999090000000     0.838470000000     0.130620000000     0.0361975  
C1075    C      0.983240000000     0.842500000000     0.117190000000    -0.0868763  
C1076    C      0.963510000000     0.844670000000     0.124400000000     0.074375   
C1077    C      0.974650000000     0.839450000000     0.158040000000     0.072585   
C1078    C      0.019980000000     0.835050000000     0.122870000000     0.035329   
C1079    C      0.036890000000     0.842700000000     0.133040000000    -0.0859438  
C1080    C      0.056360000000     0.839110000000     0.125400000000     0.0738905  
C1081    C      0.042730000000     0.820650000000     0.097930000000     0.0741619  
C1082    C      0.023140000000     0.823950000000     0.105100000000    -0.0866698  
C1083    C      0.248630000000     0.374560000000     0.131720000000    -0.0854964  
C1084    C      0.252650000000     0.355910000000     0.122480000000     0.0358203  
C1085    C      0.236110000000     0.344530000000     0.115770000000    -0.0863012  
C1086    C      0.216410000000     0.351610000000     0.118510000000     0.0741498  
C1087    C      0.228680000000     0.381470000000     0.133660000000     0.073901   
C1088    C      0.273830000000     0.348450000000     0.119370000000     0.035905   
C1089    C      0.290030000000     0.361780000000     0.116560000000    -0.085681   
C1090    C      0.309450000000     0.354350000000     0.112430000000     0.0736121  
C1091    C      0.297360000000     0.320920000000     0.113610000000     0.0746053  
C1092    C      0.277970000000     0.327760000000     0.118440000000    -0.0864392  
C1093    C      0.124490000000     0.526060000000     0.133880000000    -0.0862222  
C1094    C      0.114640000000     0.508940000000     0.141200000000     0.0361291  
C1095    C      0.097550000000     0.511560000000     0.153510000000    -0.0871258  
C1096    C      0.090650000000     0.530830000000     0.158200000000     0.0747444  
C1097    C      0.117180000000     0.545200000000     0.138930000000     0.0739687  
C1098    C      0.122190000000     0.488380000000     0.136480000000     0.0358042  
C1099    C      0.108550000000     0.472690000000     0.132990000000    -0.086945   
C1100    C      0.115680000000     0.453110000000     0.130410000000     0.0740926  
C1101    C      0.149590000000     0.464180000000     0.133590000000     0.0735747  
C1102    C      0.142970000000     0.483990000000     0.136360000000    -0.0860478  
C1103    C      0.107980000000     0.360930000000     0.207410000000    -0.0857256  
C1104    C      0.118960000000     0.366620000000     0.224610000000     0.0355285  
C1105    C      0.137660000000     0.376090000000     0.221890000000    -0.0866976  
C1106    C      0.144930000000     0.379730000000     0.202470000000     0.0733143  
C1107    C      0.115750000000     0.364820000000     0.188100000000     0.0726462  
C1108    C      0.111140000000     0.362960000000     0.245370000000     0.0356859  
C1109    C      0.090690000000     0.366100000000     0.250240000000    -0.0855578  
C1110    C      0.084100000000     0.363890000000     0.270240000000     0.0725268  
C1111    C      0.117340000000     0.355080000000     0.280520000000     0.0744233  
C1112    C      0.124400000000     0.357070000000     0.260780000000    -0.0869102  
C1113    C      0.111010000000     0.180890000000     0.889770000000    -0.0859964  
C1114    C      0.105870000000     0.197770000000     0.878170000000     0.0358378  
C1115    C      0.096740000000     0.194680000000     0.859310000000    -0.0866903  
C1116    C      0.092710000000     0.175260000000     0.852580000000     0.0738632  
C1117    C      0.106660000000     0.161590000000     0.882570000000     0.073797   
C1118    C      0.109460000000     0.218550000000     0.885700000000     0.0356948  
C1119    C      0.106290000000     0.223650000000     0.906060000000    -0.0855574  
C1120    C      0.108340000000     0.243620000000     0.912420000000     0.0729063  
C1121    C      0.116940000000     0.253510000000     0.879100000000     0.0743673  
C1122    C      0.115210000000     0.233760000000     0.872290000000    -0.0867451  
C1123    C      0.124280000000     0.346340000000     0.052180000000    -0.0862498  
C1124    C      0.131210000000     0.356720000000     0.035130000000     0.0361518  
C1125    C      0.142000000000     0.374560000000     0.038060000000    -0.0869903  
C1126    C      0.145730000000     0.381570000000     0.057580000000     0.0745272  
C1127    C      0.128280000000     0.353820000000     0.071560000000     0.0742382  
C1128    C      0.127420000000     0.349090000000     0.014330000000     0.0354215  
C1129    C      0.129220000000     0.328580000000     0.009690000000    -0.0857877  
C1130    C      0.126610000000     0.321970000000     0.989760000000     0.0729462  
C1131    C      0.120080000000     0.355350000000     0.979060000000     0.073946   
C1132    C      0.122550000000     0.362450000000     0.998740000000    -0.0863741  
C1133    C      0.984080000000     0.333130000000     0.886270000000    -0.0867663  
C1134    C      0.999620000000     0.343500000000     0.876380000000     0.036344   
C1135    C      0.994470000000     0.355660000000     0.859840000000    -0.0852416  
C1136    C      0.974240000000     0.357280000000     0.853730000000     0.0736428  
C1137    C      0.964090000000     0.335370000000     0.880000000000     0.0741011  
C1138    C      0.020970000000     0.341390000000     0.883390000000     0.0350854  
C1139    C      0.025210000000     0.338630000000     0.903970000000    -0.0866484  
C1140    C      0.044960000000     0.334840000000     0.910280000000     0.0742291  
C1141    C      0.056970000000     0.337930000000     0.876650000000     0.0730376  
C1142    C      0.037250000000     0.341360000000     0.869710000000    -0.085574   
C1143    C      0.194230000000     0.364440000000     0.890550000000    -0.0857091  
C1144    C      0.210420000000     0.350830000000     0.888400000000     0.0358093  
C1145    C      0.206190000000     0.330220000000     0.889490000000    -0.0866084  
C1146    C      0.186670000000     0.323740000000     0.893930000000     0.0745445  
C1147    C      0.174700000000     0.357360000000     0.894410000000     0.0734819  
C1148    C      0.231710000000     0.357900000000     0.885990000000     0.035859   
C1149    C      0.236260000000     0.375910000000     0.876000000000    -0.0857537  
C1150    C      0.256350000000     0.382350000000     0.874540000000     0.0737762  
C1151    C      0.267640000000     0.353360000000     0.892010000000     0.0740854  
C1152    C      0.247800000000     0.346730000000     0.894150000000    -0.0865226  
H1       H      0.331600000000     0.089950000000     0.277650000000     0.0531799  
H2       H      0.320300000000     0.081950000000     0.311310000000     0.0307741  
H3       H      0.381330000000     0.082160000000     0.332640000000     0.0305207  
H4       H      0.393560000000     0.088610000000     0.298650000000     0.0530893  
H5       H      0.397720000000     0.109350000000     0.271050000000     0.0531743  
H6       H      0.409140000000     0.112370000000     0.236260000000     0.0313226  
H7       H      0.357200000000     0.080130000000     0.215810000000     0.0306045  
H8       H      0.346090000000     0.075480000000     0.250100000000     0.053162   
H9       H      0.508510000000     0.089750000000     0.158920000000     0.0532203  
H10      H      0.473800000000     0.087280000000     0.170800000000     0.0314057  
H11      H      0.453040000000     0.119600000000     0.119020000000     0.0305737  
H12      H      0.487300000000     0.123730000000     0.107440000000     0.0530618  
H13      H      0.514770000000     0.109140000000     0.092790000000     0.0531546  
H14      H      0.548470000000     0.117100000000     0.081340000000     0.0303127  
H15      H      0.570070000000     0.116610000000     0.142200000000     0.0308929  
H16      H      0.536140000000     0.110220000000     0.154550000000     0.0531471  
H17      H      0.724530000000     0.070430000000     0.140700000000     0.0532535  
H18      H      0.759210000000     0.058650000000     0.144320000000     0.0312669  
H19      H      0.780250000000     0.107650000000     0.108460000000     0.0306867  
H20      H      0.746030000000     0.119060000000     0.103310000000     0.0530717  
H21      H      0.718680000000     0.134780000000     0.117320000000     0.0531897  
H22      H      0.685020000000     0.146040000000     0.108770000000     0.0304089  
H23      H      0.663110000000     0.085820000000     0.112140000000     0.0309288  
H24      H      0.697020000000     0.073620000000     0.119270000000     0.0532472  
H25      H      0.141330000000     0.086240000000     0.502980000000     0.053164   
H26      H      0.137510000000     0.097330000000     0.468610000000     0.030566   
H27      H      0.104240000000     0.149020000000     0.488440000000     0.0312629  
H28      H      0.106520000000     0.137690000000     0.523270000000     0.053138   
H29      H      0.127240000000     0.133350000000     0.551310000000     0.0530599  
H30      H      0.133140000000     0.121050000000     0.585340000000     0.0303476  
H31      H      0.132700000000     0.060480000000     0.563670000000     0.0306765  
H32      H      0.125350000000     0.071940000000     0.529920000000     0.0533052  
H33      H      0.244920000000     0.126440000000     0.378360000000     0.0535571  
H34      H      0.279010000000     0.113400000000     0.375390000000     0.0318576  
H35      H      0.258430000000     0.054480000000     0.390380000000     0.0314906  
H36      H      0.223980000000     0.067180000000     0.394170000000     0.0536261  
H37      H      0.194670000000     0.081280000000     0.377120000000     0.0536935  
H38      H      0.161190000000     0.095010000000     0.384440000000     0.0318167  
H39      H      0.187960000000     0.147150000000     0.411010000000     0.0309811  
H40      H      0.221410000000     0.133780000000     0.404520000000     0.0535159  
H41      H      0.082620000000     0.114160000000     0.740570000000     0.0531929  
H42      H      0.070970000000     0.116440000000     0.775380000000     0.0312966  
H43      H      0.122070000000     0.082040000000     0.794970000000     0.0305611  
H44      H      0.133430000000     0.078230000000     0.760580000000     0.0532201  
H45      H      0.148530000000     0.094190000000     0.734070000000     0.0532937  
H46      H      0.160350000000     0.087210000000     0.700260000000     0.0307493  
H47      H      0.099600000000     0.088300000000     0.678140000000     0.0304774  
H48      H      0.086890000000     0.093860000000     0.712180000000     0.0531412  
H49      H      0.844530000000     0.108360000000     0.257110000000     0.0535546  
H50      H      0.856730000000     0.111680000000     0.291450000000     0.0312043  
H51      H      0.914670000000     0.088660000000     0.273710000000     0.0314615  
H52      H      0.902800000000     0.084640000000     0.239130000000     0.0537478  
H53      H      0.891470000000     0.101950000000     0.208630000000     0.0537567  
H54      H      0.878400000000     0.093880000000     0.175180000000     0.0319169  
H55      H      0.822840000000     0.073900000000     0.201400000000     0.0310145  
H56      H      0.835440000000     0.081340000000     0.234880000000     0.0535567  
H57      H      0.989320000000     0.102000000000     0.406400000000     0.0533394  
H58      H      0.955050000000     0.098740000000     0.393940000000     0.0313491  
H59      H      0.975060000000     0.111500000000     0.333840000000     0.0323934  
H60      H      0.009540000000     0.115550000000     0.345870000000     0.0528985  
H61      H      0.039040000000     0.099310000000     0.359890000000     0.053717   
H62      H      0.072640000000     0.107550000000     0.372400000000     0.0317699  
H63      H      0.046520000000     0.135490000000     0.424660000000     0.0309947  
H64      H      0.012910000000     0.128100000000     0.412460000000     0.0534461  
H65      H      0.390180000000     0.972530000000     0.128160000000     0.0532894  
H66      H      0.377900000000     0.938470000000     0.125890000000     0.0316573  
H67      H      0.318050000000     0.958300000000     0.140950000000     0.0315158  
H68      H      0.330000000000     0.992720000000     0.144070000000     0.0532041  
H69      H      0.343310000000     0.021670000000     0.126430000000     0.0539845  
H70      H      0.356290000000     0.055250000000     0.133060000000     0.0316195  
H71      H      0.409700000000     0.030020000000     0.159400000000     0.0313605  
H72      H      0.397100000000     0.996530000000     0.153650000000     0.0526521  
H73      H      0.894490000000     0.206600000000     0.353510000000     0.0537906  
H74      H      0.902610000000     0.173320000000     0.341090000000     0.0310052  
H75      H      0.871610000000     0.146950000000     0.391150000000     0.0310127  
H76      H      0.862840000000     0.180260000000     0.403960000000     0.0537816  
H77      H      0.866210000000     0.229340000000     0.358180000000     0.0536898  
H78      H      0.861860000000     0.263420000000     0.370550000000     0.030567   
H79      H      0.874260000000     0.244070000000     0.430880000000     0.0324033  
H80      H      0.879150000000     0.209780000000     0.418970000000     0.0538484  
H81      H      0.870200000000     0.331620000000     0.555340000000     0.0539179  
H82      H      0.861390000000     0.344630000000     0.588730000000     0.0314535  
H83      H      0.830130000000     0.394110000000     0.561680000000     0.0309852  
H84      H      0.838420000000     0.381530000000     0.528300000000     0.0538605  
H85      H      0.853080000000     0.316560000000     0.525650000000     0.053885   
H86      H      0.857890000000     0.304440000000     0.491220000000     0.032197   
H87      H      0.871740000000     0.363980000000     0.471600000000     0.030644   
H88      H      0.867340000000     0.376550000000     0.505790000000     0.0537788  
H89      H      0.893900000000     0.343280000000     0.741470000000     0.0532286  
H90      H      0.905370000000     0.339690000000     0.776210000000     0.0309406  
H91      H      0.858580000000     0.379600000000     0.796370000000     0.0305607  
H92      H      0.847460000000     0.384520000000     0.762070000000     0.0530442  
H93      H      0.830390000000     0.369530000000     0.735810000000     0.0532623  
H94      H      0.818780000000     0.376710000000     0.702030000000     0.0307868  
H95      H      0.879040000000     0.370260000000     0.679160000000     0.0308093  
H96      H      0.891590000000     0.364210000000     0.713140000000     0.053072   
H97      H      0.827730000000     0.457510000000     0.868060000000     0.0539325  
H98      H      0.815520000000     0.491960000000     0.869260000000     0.0322737  
H99      H      0.868760000000     0.509880000000     0.901130000000     0.0305991  
H100     H      0.881300000000     0.475540000000     0.900560000000     0.05333    
H101     H      0.894700000000     0.453570000000     0.874440000000     0.0536582  
H102     H      0.908020000000     0.420530000000     0.866440000000     0.0307214  
H103     H      0.850290000000     0.394330000000     0.878500000000     0.0319327  
H104     H      0.836440000000     0.427250000000     0.886960000000     0.0536752  
H105     H      0.905130000000     0.570300000000     0.769600000000     0.0543759  
H106     H      0.917190000000     0.576210000000     0.735310000000     0.0311858  
H107     H      0.867520000000     0.616240000000     0.724660000000     0.0310862  
H108     H      0.855380000000     0.611050000000     0.759040000000     0.0545331  
H109     H      0.869010000000     0.616330000000     0.797350000000     0.0545257  
H110     H      0.854100000000     0.608020000000     0.830070000000     0.0310512  
H111     H      0.855050000000     0.545600000000     0.814440000000     0.0303076  
H112     H      0.870410000000     0.553360000000     0.782000000000     0.0543454  
H113     H      0.897980000000     0.497550000000     0.654220000000     0.0535614  
H114     H      0.912100000000     0.530260000000     0.661040000000     0.0317381  
H115     H      0.857080000000     0.558550000000     0.642110000000     0.0308535  
H116     H      0.842460000000     0.525800000000     0.634570000000     0.0534883  
H117     H      0.830370000000     0.495310000000     0.651090000000     0.0533032  
H118     H      0.817780000000     0.461220000000     0.646630000000     0.0309751  
H119     H      0.875290000000     0.442600000000     0.623230000000     0.0313068  
H120     H      0.888130000000     0.476350000000     0.626870000000     0.0536802  
H121     H      0.888940000000     0.703210000000     0.587390000000     0.0536115  
H122     H      0.884740000000     0.737000000000     0.574040000000     0.0316527  
H123     H      0.858580000000     0.756410000000     0.630010000000     0.030291   
H124     H      0.862120000000     0.722830000000     0.643670000000     0.0534384  
H125     H      0.890580000000     0.702770000000     0.654660000000     0.0537153  
H126     H      0.899150000000     0.670680000000     0.669400000000     0.0318459  
H127     H      0.881570000000     0.640500000000     0.615070000000     0.0310366  
H128     H      0.872460000000     0.672590000000     0.599790000000     0.0534959  
H129     H      0.720100000000     0.631430000000     0.894950000000     0.0538577  
H130     H      0.687610000000     0.645250000000     0.905130000000     0.0302891  
H131     H      0.657650000000     0.592900000000     0.882750000000     0.0322894  
H132     H      0.690020000000     0.578580000000     0.872270000000     0.0538708  
H133     H      0.720810000000     0.565320000000     0.889470000000     0.0541035  
H134     H      0.754910000000     0.552140000000     0.884970000000     0.0318951  
H135     H      0.774060000000     0.608350000000     0.860540000000     0.0305748  
H136     H      0.740130000000     0.621980000000     0.864700000000     0.0535943  
H137     H      0.869160000000     0.077280000000     0.003030000000     0.0535882  
H138     H      0.870370000000     0.090540000000     0.969050000000     0.031416   
H139     H      0.853910000000     0.148900000000     0.990970000000     0.031817   
H140     H      0.851820000000     0.135980000000     0.025250000000     0.0537798  
H141     H      0.870120000000     0.122520000000     0.053700000000     0.0537206  
H142     H      0.863450000000     0.109050000000     0.087220000000     0.0317471  
H143     H      0.838490000000     0.055910000000     0.060880000000     0.031083   
H144     H      0.844300000000     0.069020000000     0.027380000000     0.0535113  
H145     H      0.853570000000     0.227450000000     0.860980000000     0.0533378  
H146     H      0.851090000000     0.193260000000     0.873090000000     0.031057   
H147     H      0.875340000000     0.210900000000     0.930330000000     0.0311532  
H148     H      0.878630000000     0.245290000000     0.918510000000     0.053574   
H149     H      0.861070000000     0.275520000000     0.908070000000     0.0537141  
H150     H      0.868940000000     0.308780000000     0.895180000000     0.0317532  
H151     H      0.886910000000     0.283210000000     0.838490000000     0.030724   
H152     H      0.879740000000     0.249860000000     0.850940000000     0.0535095  
H153     H      0.944040000000     0.117000000000     0.855240000000     0.0532434  
H154     H      0.909930000000     0.123440000000     0.867520000000     0.0304941  
H155     H      0.931320000000     0.123430000000     0.928480000000     0.0312436  
H156     H      0.965120000000     0.115610000000     0.917060000000     0.0534342  
H157     H      0.992470000000     0.130530000000     0.902350000000     0.053073   
H158     H      0.026880000000     0.125560000000     0.891300000000     0.030635   
H159     H      0.006560000000     0.092030000000     0.840030000000     0.0314756  
H160     H      0.971690000000     0.095500000000     0.851350000000     0.0531505  
H161     H      0.535680000000     0.601220000000     0.861230000000     0.0538164  
H162     H      0.569720000000     0.608470000000     0.873130000000     0.031963   
H163     H      0.545410000000     0.642810000000     0.922320000000     0.0302526  
H164     H      0.511340000000     0.636290000000     0.910700000000     0.0534297  
H165     H      0.487080000000     0.609760000000     0.907650000000     0.0536372  
H166     H      0.452690000000     0.605270000000     0.896040000000     0.0318316  
H167     H      0.471780000000     0.612600000000     0.834700000000     0.0317773  
H168     H      0.506490000000     0.617670000000     0.845850000000     0.0535612  
H169     H      0.340420000000     0.872800000000     0.000380000000     0.0529292  
H170     H      0.345480000000     0.862290000000     0.965880000000     0.0305539  
H171     H      0.383100000000     0.813620000000     0.985270000000     0.0311037  
H172     H      0.379480000000     0.824460000000     0.020230000000     0.0531478  
H173     H      0.357870000000     0.826580000000     0.048070000000     0.0530864  
H174     H      0.350640000000     0.837980000000     0.082280000000     0.0305532  
H175     H      0.346260000000     0.898640000000     0.061650000000     0.0307914  
H176     H      0.354780000000     0.888180000000     0.027750000000     0.0531937  
H177     H      0.394150000000     0.731570000000     0.861420000000     0.0530749  
H178     H      0.391070000000     0.766150000000     0.871960000000     0.0302848  
H179     H      0.354690000000     0.748900000000     0.922450000000     0.0313134  
H180     H      0.356290000000     0.714000000000     0.911660000000     0.0531745  
H181     H      0.376200000000     0.685220000000     0.908680000000     0.0530602  
H182     H      0.381130000000     0.650910000000     0.897050000000     0.0307062  
H183     H      0.383840000000     0.671040000000     0.835810000000     0.0304609  
H184     H      0.377580000000     0.705190000000     0.846570000000     0.053179   
H185     H      0.338370000000     0.522580000000     0.872720000000     0.053061   
H186     H      0.350200000000     0.556530000000     0.866910000000     0.0306037  
H187     H      0.411600000000     0.536050000000     0.868370000000     0.0305421  
H188     H      0.400590000000     0.502330000000     0.875680000000     0.0531437  
H189     H      0.386980000000     0.475280000000     0.859500000000     0.0530595  
H190     H      0.376000000000     0.440990000000     0.862420000000     0.03048    
H191     H      0.322880000000     0.459900000000     0.894350000000     0.0314081  
H192     H      0.334040000000     0.494600000000     0.892980000000     0.0530801  
H193     H      0.151360000000     0.997250000000     0.864630000000     0.053206   
H194     H      0.163910000000     0.962880000000     0.866740000000     0.0311208  
H195     H      0.106500000000     0.943490000000     0.889150000000     0.0310154  
H196     H      0.093650000000     0.977570000000     0.887780000000     0.0530709  
H197     H      0.083820000000     0.000790000000     0.862040000000     0.0538983  
H198     H      0.070600000000     0.034170000000     0.856110000000     0.0309226  
H199     H      0.125930000000     0.060020000000     0.876980000000     0.0317445  
H200     H      0.139630000000     0.026630000000     0.883560000000     0.0540937  
H201     H      0.264490000000     0.823240000000     0.899790000000     0.0534906  
H202     H      0.298270000000     0.810960000000     0.906490000000     0.0310239  
H203     H      0.323600000000     0.864320000000     0.881260000000     0.0316326  
H204     H      0.289830000000     0.876910000000     0.873630000000     0.0535476  
H205     H      0.260420000000     0.890050000000     0.890490000000     0.0536289  
H206     H      0.225820000000     0.902120000000     0.887150000000     0.0319523  
H207     H      0.206070000000     0.842870000000     0.872030000000     0.031148   
H208     H      0.240450000000     0.830410000000     0.874450000000     0.0534205  
H209     H      0.335450000000     0.569930000000     0.737360000000     0.0534763  
H210     H      0.323460000000     0.563820000000     0.703310000000     0.0301808  
H211     H      0.374100000000     0.595500000000     0.679050000000     0.0318533  
H212     H      0.386380000000     0.602310000000     0.713010000000     0.0539609  
H213     H      0.401130000000     0.585380000000     0.742100000000     0.0535785  
H214     H      0.412620000000     0.590630000000     0.776660000000     0.0317612  
H215     H      0.351630000000     0.601150000000     0.795860000000     0.0317813  
H216     H      0.339680000000     0.596480000000     0.761610000000     0.0535504  
H217     H      0.358220000000     0.575680000000     0.530900000000     0.0535253  
H218     H      0.348950000000     0.561180000000     0.563090000000     0.0303373  
H219     H      0.356120000000     0.618190000000     0.592130000000     0.0310223  
H220     H      0.365790000000     0.633260000000     0.560040000000     0.053403   
H221     H      0.349190000000     0.641860000000     0.528120000000     0.0536433  
H222     H      0.352390000000     0.654400000000     0.493820000000     0.0318658  
H223     H      0.388250000000     0.603190000000     0.477490000000     0.0305931  
H224     H      0.385710000000     0.590380000000     0.511710000000     0.0533246  
H225     H      0.250460000000     0.606620000000     0.366890000000     0.0540148  
H226     H      0.215960000000     0.595850000000     0.360530000000     0.031426   
H227     H      0.216600000000     0.560830000000     0.414630000000     0.0305153  
H228     H      0.251150000000     0.571340000000     0.421470000000     0.0535247  
H229     H      0.266260000000     0.604520000000     0.431160000000     0.0536142  
H230     H      0.298590000000     0.619680000000     0.439080000000     0.0304032  
H231     H      0.318950000000     0.609670000000     0.378450000000     0.030501   
H232     H      0.286560000000     0.594400000000     0.369940000000     0.0537949  
H233     H      0.091020000000     0.609470000000     0.494350000000     0.0534213  
H234     H      0.089590000000     0.620220000000     0.529440000000     0.0304997  
H235     H      0.146020000000     0.650700000000     0.522750000000     0.0308883  
H236     H      0.148200000000     0.639890000000     0.487760000000     0.0535049  
H237     H      0.134500000000     0.641630000000     0.453770000000     0.0532184  
H238     H      0.142060000000     0.625610000000     0.421490000000     0.0298532  
H239     H      0.118520000000     0.570010000000     0.443320000000     0.0304083  
H240     H      0.111130000000     0.585320000000     0.475760000000     0.0537286  
H241     H      0.037570000000     0.587400000000     0.623690000000     0.0538931  
H242     H      0.070590000000     0.596580000000     0.610030000000     0.0297562  
H243     H      0.059700000000     0.658090000000     0.625700000000     0.0301437  
H244     H      0.026900000000     0.649430000000     0.639650000000     0.0539512  
H245     H      0.011830000000     0.628850000000     0.668480000000     0.0538408  
H246     H      0.977150000000     0.622700000000     0.679180000000     0.0311577  
H247     H      0.966020000000     0.589740000000     0.624740000000     0.0310069  
H248     H      0.000670000000     0.595420000000     0.613700000000     0.0533819  
H249     H      0.204140000000     0.614130000000     0.646560000000     0.0537656  
H250     H      0.171110000000     0.627740000000     0.637540000000     0.0315139  
H251     H      0.174060000000     0.597780000000     0.580300000000     0.0304791  
H252     H      0.207010000000     0.583880000000     0.588850000000     0.0536505  
H253     H      0.225010000000     0.560560000000     0.612910000000     0.053664   
H254     H      0.260180000000     0.550660000000     0.617990000000     0.0316326  
H255     H      0.274340000000     0.610020000000     0.638280000000     0.0305929  
H256     H      0.239380000000     0.620360000000     0.633490000000     0.053917   
H257     H      0.722950000000     0.319360000000     0.601210000000     0.0536121  
H258     H      0.689930000000     0.305630000000     0.593620000000     0.0304144  
H259     H      0.661390000000     0.353290000000     0.626720000000     0.0323975  
H260     H      0.694320000000     0.367320000000     0.634960000000     0.0539363  
H261     H      0.722550000000     0.384280000000     0.618460000000     0.0538548  
H262     H      0.756260000000     0.397940000000     0.623630000000     0.0317601  
H263     H      0.779780000000     0.338760000000     0.633210000000     0.0311959  
H264     H      0.746380000000     0.324660000000     0.628580000000     0.0536774  
H265     H      0.337050000000     0.377650000000     0.775430000000     0.0535061  
H266     H      0.324300000000     0.384190000000     0.809080000000     0.0310227  
H267     H      0.377700000000     0.358320000000     0.834850000000     0.0316734  
H268     H      0.390840000000     0.351030000000     0.801150000000     0.0537085  
H269     H      0.404040000000     0.368030000000     0.771310000000     0.0535868  
H270     H      0.415920000000     0.363840000000     0.736660000000     0.0314557  
H271     H      0.356250000000     0.347620000000     0.717890000000     0.0319213  
H272     H      0.344040000000     0.351060000000     0.752200000000     0.0536443  
H273     H      0.513460000000     0.318450000000     0.599710000000     0.0534238  
H274     H      0.547030000000     0.310910000000     0.587090000000     0.0305905  
H275     H      0.573450000000     0.341120000000     0.637660000000     0.0317761  
H276     H      0.539880000000     0.349380000000     0.650630000000     0.0537299  
H277     H      0.510020000000     0.333580000000     0.665510000000     0.0535714  
H278     H      0.475530000000     0.339360000000     0.677330000000     0.0315727  
H279     H      0.456380000000     0.351230000000     0.616780000000     0.0317872  
H280     H      0.490550000000     0.346090000000     0.604550000000     0.0536217  
H281     H      0.402600000000     0.452950000000     0.639880000000     0.0531021  
H282     H      0.414180000000     0.419340000000     0.647250000000     0.0304949  
H283     H      0.353210000000     0.398150000000     0.647490000000     0.030499   
H284     H      0.340770000000     0.431980000000     0.641660000000     0.0529529  
H285     H      0.336090000000     0.459550000000     0.621260000000     0.0530505  
H286     H      0.324180000000     0.494020000000     0.618980000000     0.0320447  
H287     H      0.376500000000     0.514380000000     0.650820000000     0.030805   
H288     H      0.388180000000     0.480290000000     0.654740000000     0.0530324  
H289     H      0.347000000000     0.878530000000     0.258600000000     0.053152   
H290     H      0.358190000000     0.874050000000     0.292890000000     0.0307181  
H291     H      0.405400000000     0.834430000000     0.273070000000     0.0307627  
H292     H      0.393830000000     0.837580000000     0.238290000000     0.0531282  
H293     H      0.391600000000     0.858550000000     0.209970000000     0.0530156  
H294     H      0.379360000000     0.865280000000     0.176010000000     0.0305577  
H295     H      0.318940000000     0.871550000000     0.198470000000     0.0304882  
H296     H      0.330220000000     0.863630000000     0.232200000000     0.0531706  
H297     H      0.507430000000     0.857330000000     0.348060000000     0.0529843  
H298     H      0.472540000000     0.860710000000     0.336850000000     0.0308632  
H299     H      0.452690000000     0.824030000000     0.385880000000     0.030405   
H300     H      0.487150000000     0.819250000000     0.396790000000     0.0529855  
H301     H      0.513750000000     0.834480000000     0.412740000000     0.0532019  
H302     H      0.547650000000     0.827430000000     0.424270000000     0.0312262  
H303     H      0.570000000000     0.830840000000     0.363710000000     0.030316   
H304     H      0.535880000000     0.836660000000     0.351260000000     0.0529019  
H305     H      0.360210000000     0.778330000000     0.409630000000     0.0537097  
H306     H      0.369740000000     0.810410000000     0.394950000000     0.0320491  
H307     H      0.381340000000     0.781720000000     0.338130000000     0.0306614  
H308     H      0.372160000000     0.749490000000     0.352290000000     0.053712   
H309     H      0.344630000000     0.729390000000     0.366200000000     0.0533839  
H310     H      0.342370000000     0.695570000000     0.379700000000     0.030321   
H311     H      0.375450000000     0.713520000000     0.432200000000     0.0317386  
H312     H      0.378240000000     0.747420000000     0.419080000000     0.0539802  
H313     H      0.343040000000     0.929630000000     0.382740000000     0.0535731  
H314     H      0.355600000000     0.895810000000     0.376110000000     0.0317434  
H315     H      0.410320000000     0.919770000000     0.351640000000     0.0306308  
H316     H      0.398120000000     0.953600000000     0.357420000000     0.0532285  
H317     H      0.390480000000     0.977870000000     0.382520000000     0.0535673  
H318     H      0.378320000000     0.012110000000     0.384770000000     0.0316089  
H319     H      0.318810000000     0.993320000000     0.368120000000     0.0311903  
H320     H      0.330630000000     0.958760000000     0.365010000000     0.0534137  
H321     H      0.900230000000     0.000920000000     0.368340000000     0.0537573  
H322     H      0.912270000000     0.034380000000     0.361540000000     0.0310314  
H323     H      0.851670000000     0.057170000000     0.362870000000     0.030637   
H324     H      0.838770000000     0.023490000000     0.368490000000     0.0534101  
H325     H      0.834890000000     0.995230000000     0.389390000000     0.0527101  
H326     H      0.823070000000     0.960710000000     0.391580000000     0.0308608  
H327     H      0.872850000000     0.940900000000     0.355120000000     0.0307114  
H328     H      0.884430000000     0.974950000000     0.351630000000     0.052845   
H329     H      0.744860000000     0.832690000000     0.403610000000     0.053024   
H330     H      0.778880000000     0.844860000000     0.399340000000     0.0304737  
H331     H      0.756900000000     0.895790000000     0.366680000000     0.0308371  
H332     H      0.722410000000     0.883440000000     0.369610000000     0.0530253  
H333     H      0.694650000000     0.878020000000     0.390930000000     0.0528507  
H334     H      0.661080000000     0.864430000000     0.396860000000     0.0301252  
H335     H      0.684960000000     0.804680000000     0.394490000000     0.0309895  
H336     H      0.718310000000     0.817460000000     0.387310000000     0.0532221  
H337     H      0.853220000000     0.881260000000     0.479130000000     0.0534571  
H338     H      0.843100000000     0.895120000000     0.446850000000     0.0306098  
H339     H      0.864980000000     0.842520000000     0.416430000000     0.0323781  
H340     H      0.875660000000     0.828250000000     0.448520000000     0.0536616  
H341     H      0.859500000000     0.814550000000     0.478560000000     0.0540425  
H342     H      0.864400000000     0.800690000000     0.512120000000     0.0321283  
H343     H      0.886090000000     0.857370000000     0.533350000000     0.0302219  
H344     H      0.881770000000     0.871650000000     0.499910000000     0.0534278  
H345     H      0.587280000000     0.244650000000     0.159580000000     0.0536578  
H346     H      0.581500000000     0.278180000000     0.172630000000     0.0305743  
H347     H      0.613940000000     0.303230000000     0.122790000000     0.0321109  
H348     H      0.620450000000     0.269680000000     0.109420000000     0.0538672  
H349     H      0.602750000000     0.241460000000     0.093800000000     0.0536451  
H350     H      0.606760000000     0.207210000000     0.081280000000     0.0315313  
H351     H      0.616950000000     0.186370000000     0.141520000000     0.0319494  
H352     H      0.613560000000     0.220240000000     0.154450000000     0.0536637  
H353     H      0.654820000000     0.455060000000     0.138600000000     0.0535331  
H354     H      0.666380000000     0.489360000000     0.133590000000     0.0309515  
H355     H      0.605600000000     0.508540000000     0.122180000000     0.031874   
H356     H      0.593620000000     0.474530000000     0.126370000000     0.0536084  
H357     H      0.588790000000     0.452310000000     0.153940000000     0.0534874  
H358     H      0.576450000000     0.419320000000     0.162420000000     0.0308523  
H359     H      0.627430000000     0.392070000000     0.133100000000     0.031285   
H360     H      0.640100000000     0.425110000000     0.123760000000     0.0534473  
H361     H      0.621750000000     0.641320000000     0.022500000000     0.053157   
H362     H      0.618430000000     0.652760000000     0.987750000000     0.0316628  
H363     H      0.625800000000     0.592480000000     0.966340000000     0.0307368  
H364     H      0.630080000000     0.580650000000     0.000520000000     0.0530533  
H365     H      0.613060000000     0.574300000000     0.030670000000     0.053288   
H366     H      0.620250000000     0.560830000000     0.063780000000     0.031523   
H367     H      0.650750000000     0.614910000000     0.080350000000     0.0295685  
H368     H      0.644710000000     0.628650000000     0.046870000000     0.0529715  
H369     H      0.741610000000     0.333340000000     0.378110000000     0.0540397  
H370     H      0.707440000000     0.345590000000     0.373080000000     0.0316707  
H371     H      0.723640000000     0.402840000000     0.397560000000     0.030854   
H372     H      0.758210000000     0.390940000000     0.402960000000     0.0536631  
H373     H      0.789690000000     0.378740000000     0.384770000000     0.0539251  
H374     H      0.822980000000     0.364730000000     0.392530000000     0.0313644  
H375     H      0.795360000000     0.311480000000     0.415520000000     0.0308662  
H376     H      0.762100000000     0.324940000000     0.408080000000     0.0539169  
H377     H      0.631850000000     0.324340000000     0.458900000000     0.052987   
H378     H      0.637950000000     0.338100000000     0.425600000000     0.0308355  
H379     H      0.630580000000     0.397710000000     0.448750000000     0.0304934  
H380     H      0.622870000000     0.384630000000     0.481880000000     0.0529485  
H381     H      0.637820000000     0.370990000000     0.509570000000     0.0529699  
H382     H      0.633860000000     0.357930000000     0.543240000000     0.0307411  
H383     H      0.608520000000     0.303750000000     0.519660000000     0.0314853  
H384     H      0.610850000000     0.316890000000     0.485550000000     0.0531091  
H385     H      0.597860000000     0.346430000000     0.302850000000     0.0536778  
H386     H      0.609670000000     0.356170000000     0.336310000000     0.0312412  
H387     H      0.656840000000     0.391120000000     0.309750000000     0.030774   
H388     H      0.645220000000     0.382240000000     0.276290000000     0.0536573  
H389     H      0.581370000000     0.360020000000     0.273330000000     0.0536172  
H390     H      0.570040000000     0.353920000000     0.238930000000     0.0320016  
H391     H      0.631470000000     0.349500000000     0.218850000000     0.0303326  
H392     H      0.643350000000     0.354900000000     0.253060000000     0.0535427  
H393     H      0.469550000000     0.628070000000     0.341500000000     0.0543306  
H394     H      0.503690000000     0.621710000000     0.329020000000     0.0315881  
H395     H      0.517110000000     0.587240000000     0.381830000000     0.0304542  
H396     H      0.482910000000     0.592950000000     0.394510000000     0.0543033  
H397     H      0.444550000000     0.585810000000     0.383890000000     0.0543277  
H398     H      0.412170000000     0.595300000000     0.399140000000     0.0312113  
H399     H      0.425410000000     0.657390000000     0.389560000000     0.03053    
H400     H      0.457480000000     0.648410000000     0.373870000000     0.0542371  
H401     H      0.636340000000     0.597860000000     0.253260000000     0.0539558  
H402     H      0.623190000000     0.602850000000     0.287180000000     0.0304599  
H403     H      0.563010000000     0.592010000000     0.266180000000     0.0317698  
H404     H      0.575720000000     0.586850000000     0.231940000000     0.05394    
H405     H      0.639580000000     0.568030000000     0.230860000000     0.0541106  
H406     H      0.652960000000     0.559560000000     0.197840000000     0.0315188  
H407     H      0.607180000000     0.595350000000     0.169550000000     0.0297533  
H408     H      0.593260000000     0.604190000000     0.202670000000     0.0538463  
H409     H      0.649450000000     0.496140000000     0.366200000000     0.0536316  
H410     H      0.662330000000     0.462410000000     0.372490000000     0.0318281  
H411     H      0.601890000000     0.440770000000     0.379460000000     0.03124    
H412     H      0.588530000000     0.474200000000     0.373700000000     0.0537628  
H413     H      0.585050000000     0.496960000000     0.345710000000     0.0535808  
H414     H      0.571680000000     0.529820000000     0.337390000000     0.0309935  
H415     H      0.618290000000     0.557850000000     0.372120000000     0.0318654  
H416     H      0.631950000000     0.525030000000     0.381130000000     0.0537122  
H417     H      0.585400000000     0.704200000000     0.348020000000     0.0534934  
H418     H      0.577220000000     0.671370000000     0.334770000000     0.0311357  
H419     H      0.601840000000     0.643530000000     0.387530000000     0.03122    
H420     H      0.610710000000     0.676400000000     0.401220000000     0.0535728  
H421     H      0.595370000000     0.707380000000     0.414700000000     0.0534498  
H422     H      0.601740000000     0.741480000000     0.426580000000     0.0311582  
H423     H      0.619870000000     0.758730000000     0.367050000000     0.0318682  
H424     H      0.614190000000     0.724960000000     0.354830000000     0.0538154  
H425     H      0.899850000000     0.864290000000     0.268230000000     0.0536142  
H426     H      0.911720000000     0.859440000000     0.233690000000     0.0315955  
H427     H      0.851370000000     0.846490000000     0.214500000000     0.0318501  
H428     H      0.839110000000     0.850580000000     0.248740000000     0.0534896  
H429     H      0.833180000000     0.876990000000     0.272320000000     0.053369   
H430     H      0.820970000000     0.884200000000     0.306080000000     0.0306015  
H431     H      0.873410000000     0.856170000000     0.331510000000     0.0321889  
H432     H      0.885920000000     0.848140000000     0.297810000000     0.0537689  
H433     H      0.833860000000     0.957930000000     0.119000000000     0.0529236  
H434     H      0.822760000000     0.992760000000     0.117400000000     0.0311636  
H435     H      0.873960000000     0.010830000000     0.152350000000     0.0315389  
H436     H      0.884790000000     0.976400000000     0.155460000000     0.0527159  
H437     H      0.899530000000     0.949900000000     0.138870000000     0.0532163  
H438     H      0.910720000000     0.915980000000     0.145350000000     0.0305036  
H439     H      0.849580000000     0.895310000000     0.144040000000     0.0304563  
H440     H      0.837520000000     0.929440000000     0.138960000000     0.0530972  
H441     H      0.493810000000     0.865670000000     0.894920000000     0.0531183  
H442     H      0.527800000000     0.867360000000     0.881190000000     0.030313   
H443     H      0.507110000000     0.843350000000     0.824910000000     0.0316695  
H444     H      0.472940000000     0.840920000000     0.838300000000     0.0536269  
H445     H      0.443080000000     0.858520000000     0.850480000000     0.0535003  
H446     H      0.410250000000     0.850280000000     0.864930000000     0.0318339  
H447     H      0.438740000000     0.831880000000     0.919880000000     0.030819   
H448     H      0.471670000000     0.839460000000     0.905900000000     0.0534323  
H449     H      0.579930000000     0.747520000000     0.850870000000     0.0536552  
H450     H      0.571900000000     0.780440000000     0.837570000000     0.0306461  
H451     H      0.616800000000     0.807030000000     0.875580000000     0.0316127  
H452     H      0.625440000000     0.774080000000     0.889160000000     0.0537423  
H453     H      0.607390000000     0.722880000000     0.849980000000     0.0537477  
H454     H      0.612610000000     0.689460000000     0.863450000000     0.0308255  
H455     H      0.616180000000     0.713390000000     0.923420000000     0.0317804  
H456     H      0.610680000000     0.747180000000     0.910440000000     0.0538531  
H457     H      0.763890000000     0.881710000000     0.589430000000     0.054471   
H458     H      0.729810000000     0.894280000000     0.596050000000     0.0308666  
H459     H      0.723000000000     0.852050000000     0.644170000000     0.0310175  
H460     H      0.757280000000     0.839570000000     0.638290000000     0.0546366  
H461     H      0.796190000000     0.855230000000     0.637890000000     0.0546801  
H462     H      0.828780000000     0.840030000000     0.629020000000     0.0317342  
H463     H      0.807330000000     0.828060000000     0.569210000000     0.0308257  
H464     H      0.774990000000     0.843660000000     0.577410000000     0.0544885  
H465     H      0.642580000000     0.879680000000     0.522780000000     0.0534026  
H466     H      0.651100000000     0.893240000000     0.555560000000     0.0313057  
H467     H      0.639640000000     0.836390000000     0.583120000000     0.0308378  
H468     H      0.630370000000     0.822290000000     0.550370000000     0.0533958  
H469     H      0.644520000000     0.812460000000     0.517880000000     0.0532019  
H470     H      0.637750000000     0.800520000000     0.483700000000     0.0309723  
H471     H      0.608740000000     0.856270000000     0.469510000000     0.0319966  
H472     H      0.614580000000     0.868400000000     0.503470000000     0.0535919  
H473     H      0.651090000000     0.874540000000     0.729030000000     0.0537775  
H474     H      0.665310000000     0.883610000000     0.696570000000     0.0313741  
H475     H      0.615740000000     0.855640000000     0.666160000000     0.031691   
H476     H      0.601060000000     0.846130000000     0.698550000000     0.0537195  
H477     H      0.585120000000     0.862960000000     0.728090000000     0.0539499  
H478     H      0.571200000000     0.858220000000     0.761790000000     0.0320272  
H479     H      0.629590000000     0.840960000000     0.783750000000     0.0302936  
H480     H      0.643950000000     0.845320000000     0.750270000000     0.053723   
H481     H      0.979270000000     0.841060000000     0.659840000000     0.0536515  
H482     H      0.013370000000     0.848040000000     0.671940000000     0.0314197  
H483     H      0.035940000000     0.845260000000     0.611350000000     0.0307137  
H484     H      0.002240000000     0.838480000000     0.598780000000     0.0537415  
H485     H      0.951110000000     0.855250000000     0.638890000000     0.0538296  
H486     H      0.917980000000     0.846080000000     0.625630000000     0.03154    
H487     H      0.945470000000     0.801580000000     0.587570000000     0.0307167  
H488     H      0.978580000000     0.810200000000     0.600500000000     0.0538028  
H489     H      0.139520000000     0.881000000000     0.747930000000     0.0530276  
H490     H      0.128990000000     0.875770000000     0.713520000000     0.0309974  
H491     H      0.078050000000     0.841760000000     0.733490000000     0.0315682  
H492     H      0.088890000000     0.845480000000     0.768410000000     0.0531146  
H493     H      0.092060000000     0.866820000000     0.796080000000     0.0529016  
H494     H      0.103800000000     0.873580000000     0.830210000000     0.0304037  
H495     H      0.165030000000     0.874890000000     0.809320000000     0.0309714  
H496     H      0.154220000000     0.866730000000     0.775510000000     0.0531923  
H497     H      0.106620000000     0.748950000000     0.589270000000     0.0539056  
H498     H      0.108990000000     0.714400000000     0.577380000000     0.0307912  
H499     H      0.144880000000     0.698830000000     0.628810000000     0.0316908  
H500     H      0.142850000000     0.733210000000     0.641110000000     0.0536666  
H501     H      0.113880000000     0.752930000000     0.655170000000     0.0539462  
H502     H      0.104450000000     0.785490000000     0.668860000000     0.0303813  
H503     H      0.116290000000     0.813030000000     0.611750000000     0.0316328  
H504     H      0.125820000000     0.780520000000     0.597470000000     0.0536804  
H505     H      0.140340000000     0.935950000000     0.626570000000     0.0537052  
H506     H      0.128760000000     0.901800000000     0.632190000000     0.0318845  
H507     H      0.075310000000     0.924150000000     0.661280000000     0.0301907  
H508     H      0.086590000000     0.958330000000     0.656470000000     0.0533594  
H509     H      0.092040000000     0.983360000000     0.631490000000     0.0535977  
H510     H      0.103430000000     0.017760000000     0.629150000000     0.0316962  
H511     H      0.164180000000     0.999300000000     0.641860000000     0.0315837  
H512     H      0.153200000000     0.964610000000     0.644950000000     0.0535127  
H513     H      0.377520000000     0.130710000000     0.487590000000     0.053209   
H514     H      0.380410000000     0.142660000000     0.522250000000     0.0311203  
H515     H      0.341800000000     0.095410000000     0.542450000000     0.0305838  
H516     H      0.337430000000     0.083880000000     0.508230000000     0.0532042  
H517     H      0.352590000000     0.067090000000     0.482070000000     0.0533497  
H518     H      0.345160000000     0.055290000000     0.448410000000     0.0306988  
H519     H      0.350960000000     0.114870000000     0.425250000000     0.0305936  
H520     H      0.357050000000     0.127650000000     0.459140000000     0.0531657  
H521     H      0.394570000000     0.223150000000     0.648360000000     0.053057   
H522     H      0.389930000000     0.189030000000     0.637160000000     0.0303266  
H523     H      0.354550000000     0.209240000000     0.587060000000     0.0311939  
H524     H      0.357660000000     0.243790000000     0.598580000000     0.0530182  
H525     H      0.378460000000     0.271540000000     0.602210000000     0.0529832  
H526     H      0.384600000000     0.305340000000     0.614630000000     0.0305645  
H527     H      0.387050000000     0.283590000000     0.675310000000     0.0308235  
H528     H      0.379520000000     0.250040000000     0.663810000000     0.0532158  
H529     H      0.238210000000     0.129100000000     0.634050000000     0.0535384  
H530     H      0.203720000000     0.117390000000     0.636750000000     0.0318469  
H531     H      0.222440000000     0.058010000000     0.620030000000     0.0317309  
H532     H      0.257230000000     0.069380000000     0.616520000000     0.0536778  
H533     H      0.286890000000     0.081780000000     0.633990000000     0.0537278  
H534     H      0.320800000000     0.093920000000     0.626590000000     0.0319133  
H535     H      0.295940000000     0.147770000000     0.601500000000     0.0309927  
H536     H      0.262030000000     0.135990000000     0.608080000000     0.0534963  
H537     H      0.441570000000     0.092370000000     0.652130000000     0.0534897  
H538     H      0.408530000000     0.102510000000     0.639330000000     0.0317814  
H539     H      0.436230000000     0.126370000000     0.586160000000     0.0310328  
H540     H      0.469290000000     0.117110000000     0.598600000000     0.053533   
H541     H      0.491480000000     0.090090000000     0.605650000000     0.0533882  
H542     H      0.525790000000     0.086760000000     0.617970000000     0.0322675  
H543     H      0.506440000000     0.102710000000     0.677630000000     0.0310811  
H544     H      0.471900000000     0.106990000000     0.665690000000     0.0534527  
H545     H      0.601870000000     0.974210000000     0.632490000000     0.052956   
H546     H      0.614130000000     0.940260000000     0.627730000000     0.0306357  
H547     H      0.675180000000     0.959950000000     0.635190000000     0.0309148  
H548     H      0.663500000000     0.994450000000     0.639370000000     0.0529414  
H549     H      0.646020000000     0.016190000000     0.662400000000     0.053464   
H550     H      0.631540000000     0.049160000000     0.669200000000     0.0300242  
H551     H      0.585490000000     0.038830000000     0.625080000000     0.0319427  
H552     H      0.599910000000     0.006190000000     0.617310000000     0.0537225  
H553     H      0.627630000000     0.174070000000     0.612230000000     0.0536493  
H554     H      0.617990000000     0.140860000000     0.624490000000     0.0292849  
H555     H      0.571170000000     0.167350000000     0.660650000000     0.0310763  
H556     H      0.580240000000     0.200410000000     0.648790000000     0.0540107  
H557     H      0.613640000000     0.202640000000     0.591130000000     0.0537992  
H558     H      0.619450000000     0.237070000000     0.580070000000     0.0315699  
H559     H      0.614450000000     0.257820000000     0.641150000000     0.0306604  
H560     H      0.608810000000     0.223810000000     0.652670000000     0.0539305  
H561     H      0.787760000000     0.080100000000     0.875810000000     0.0539876  
H562     H      0.820630000000     0.093650000000     0.885350000000     0.0312264  
H563     H      0.791500000000     0.140050000000     0.919720000000     0.0308596  
H564     H      0.758650000000     0.126870000000     0.910830000000     0.0538053  
H565     H      0.758110000000     0.063110000000     0.890850000000     0.0539165  
H566     H      0.723990000000     0.050870000000     0.884630000000     0.0312986  
H567     H      0.703010000000     0.111100000000     0.875830000000     0.0314881  
H568     H      0.736810000000     0.123780000000     0.881550000000     0.0539148  
H569     H      0.627110000000     0.928530000000     0.886340000000     0.0545378  
H570     H      0.612670000000     0.895920000000     0.877630000000     0.0318402  
H571     H      0.596290000000     0.918030000000     0.819220000000     0.0307001  
H572     H      0.611000000000     0.950460000000     0.827250000000     0.05421    
H573     H      0.648080000000     0.963810000000     0.836450000000     0.0541055  
H574     H      0.658990000000     0.998040000000     0.843490000000     0.0303126  
H575     H      0.621310000000     0.999930000000     0.896130000000     0.0309458  
H576     H      0.610510000000     0.965560000000     0.889770000000     0.0543982  
H577     H      0.639370000000     0.094710000000     0.778400000000     0.0541604  
H578     H      0.653870000000     0.087580000000     0.811110000000     0.0320127  
H579     H      0.595230000000     0.074190000000     0.834860000000     0.0299091  
H580     H      0.580010000000     0.081430000000     0.802040000000     0.0534734  
H581     H      0.579910000000     0.066300000000     0.767410000000     0.0535165  
H582     H      0.569400000000     0.069870000000     0.732290000000     0.0303465  
H583     H      0.607120000000     0.121510000000     0.726010000000     0.0313063  
H584     H      0.617640000000     0.118630000000     0.760930000000     0.054036   
H585     H      0.628920000000     0.136310000000     0.985160000000     0.0535401  
H586     H      0.624540000000     0.147990000000     0.019900000000     0.031598   
H587     H      0.617760000000     0.087340000000     0.039860000000     0.0319179  
H588     H      0.621630000000     0.075250000000     0.005570000000     0.0539141  
H589     H      0.649040000000     0.072550000000     0.981540000000     0.0539101  
H590     H      0.655410000000     0.059700000000     0.947930000000     0.0316725  
H591     H      0.618860000000     0.106370000000     0.922450000000     0.030552   
H592     H      0.611820000000     0.119590000000     0.956230000000     0.0537213  
H593     H      0.817980000000     0.602270000000     0.975120000000     0.0540403  
H594     H      0.809980000000     0.587970000000     0.942350000000     0.0304608  
H595     H      0.872180000000     0.591520000000     0.924710000000     0.0308753  
H596     H      0.880790000000     0.605650000000     0.957690000000     0.0542117  
H597     H      0.879600000000     0.591670000000     0.994400000000     0.0544718  
H598     H      0.885030000000     0.601600000000     0.029400000000     0.03139    
H599     H      0.837440000000     0.645170000000     0.025020000000     0.031089   
H600     H      0.831450000000     0.635410000000     0.990050000000     0.0539189  
H601     H      0.855950000000     0.740100000000     0.094290000000     0.0530765  
H602     H      0.853820000000     0.705480000000     0.082780000000     0.0314089  
H603     H      0.885570000000     0.685740000000     0.135420000000     0.0308773  
H604     H      0.889380000000     0.719920000000     0.146650000000     0.0532096  
H605     H      0.873960000000     0.747010000000     0.160840000000     0.0532582  
H606     H      0.881270000000     0.780590000000     0.172370000000     0.0305532  
H607     H      0.881680000000     0.801800000000     0.111450000000     0.0306217  
H608     H      0.875980000000     0.767960000000     0.099050000000     0.0530275  
H609     H      0.767650000000     0.622330000000     0.126510000000     0.0535884  
H610     H      0.800680000000     0.636180000000     0.119800000000     0.0305432  
H611     H      0.822850000000     0.578240000000     0.102180000000     0.0296607  
H612     H      0.789880000000     0.563590000000     0.109310000000     0.0532692  
H613     H      0.755950000000     0.563460000000     0.095570000000     0.0531144  
H614     H      0.720910000000     0.552890000000     0.099010000000     0.0300768  
H615     H      0.713660000000     0.591000000000     0.150710000000     0.0315307  
H616     H      0.748630000000     0.601340000000     0.148220000000     0.053534   
H617     H      0.363640000000     0.178420000000     0.105620000000     0.0536715  
H618     H      0.370410000000     0.144850000000     0.118690000000     0.0316577  
H619     H      0.396550000000     0.170230000000     0.172020000000     0.0310885  
H620     H      0.390590000000     0.203700000000     0.159350000000     0.0535242  
H621     H      0.364580000000     0.227380000000     0.152360000000     0.0536139  
H622     H      0.362260000000     0.261500000000     0.140220000000     0.0320824  
H623     H      0.378230000000     0.242120000000     0.080560000000     0.0313057  
H624     H      0.381370000000     0.207610000000     0.092380000000     0.0535423  
H625     H      0.369730000000     0.374000000000     0.006820000000     0.0535929  
H626     H      0.372700000000     0.361370000000     0.040890000000     0.0320518  
H627     H      0.355690000000     0.302650000000     0.020960000000     0.0312971  
H628     H      0.351940000000     0.314980000000     0.986500000000     0.0535642  
H629     H      0.369360000000     0.328370000000     0.956880000000     0.0537286  
H630     H      0.362210000000     0.342050000000     0.923490000000     0.0316421  
H631     H      0.336750000000     0.394910000000     0.950500000000     0.0310553  
H632     H      0.343130000000     0.381640000000     0.983830000000     0.0535617  
H633     H      0.447900000000     0.336910000000     0.156590000000     0.053035   
H634     H      0.414070000000     0.330550000000     0.144030000000     0.0303848  
H635     H      0.436050000000     0.330830000000     0.083240000000     0.0305236  
H636     H      0.469590000000     0.338900000000     0.094890000000     0.0530621  
H637     H      0.497420000000     0.325290000000     0.109050000000     0.0530142  
H638     H      0.531520000000     0.330120000000     0.120690000000     0.0306338  
H639     H      0.509790000000     0.360310000000     0.173620000000     0.0317372  
H640     H      0.475210000000     0.357280000000     0.161690000000     0.0530744  
H641     H      0.974850000000     0.336460000000     0.344080000000     0.0534067  
H642     H      0.009340000000     0.342270000000     0.332410000000     0.031627   
H643     H      0.028120000000     0.354210000000     0.393100000000     0.0319565  
H644     H      0.993990000000     0.349000000000     0.405170000000     0.0537398  
H645     H      0.971430000000     0.321190000000     0.409670000000     0.0537352  
H646     H      0.937950000000     0.314190000000     0.422570000000     0.0308728  
H647     H      0.911220000000     0.344680000000     0.372370000000     0.0313778  
H648     H      0.944740000000     0.352390000000     0.359110000000     0.053778   
H649     H      0.143840000000     0.434500000000     0.369140000000     0.0528801  
H650     H      0.131500000000     0.400790000000     0.362820000000     0.0304418  
H651     H      0.070430000000     0.422260000000     0.364080000000     0.0304293  
H652     H      0.081920000000     0.455730000000     0.371940000000     0.0530668  
H653     H      0.096040000000     0.483010000000     0.357120000000     0.0531253  
H654     H      0.107390000000     0.517040000000     0.361420000000     0.0308803  
H655     H      0.160180000000     0.496510000000     0.392590000000     0.0308029  
H656     H      0.148590000000     0.462010000000     0.389890000000     0.0529739  
H657     H      0.106340000000     0.274580000000     0.407590000000     0.0530479  
H658     H      0.099840000000     0.308350000000     0.395390000000     0.0305219  
H659     H      0.099470000000     0.286880000000     0.334430000000     0.0307981  
H660     H      0.107430000000     0.253360000000     0.345750000000     0.0531746  
H661     H      0.092510000000     0.226270000000     0.360390000000     0.0530237  
H662     H      0.096850000000     0.192190000000     0.371720000000     0.0304292  
H663     H      0.130110000000     0.212450000000     0.423220000000     0.0313313  
H664     H      0.127340000000     0.246950000000     0.411630000000     0.0530744  
H665     H      0.142770000000     0.598700000000     0.251120000000     0.0537913  
H666     H      0.130230000000     0.602270000000     0.216950000000     0.0313634  
H667     H      0.069200000000     0.598640000000     0.238260000000     0.0320619  
H668     H      0.081260000000     0.594570000000     0.272770000000     0.0537389  
H669     H      0.098650000000     0.611000000000     0.300980000000     0.0537636  
H670     H      0.111130000000     0.603430000000     0.334760000000     0.0308186  
H671     H      0.157170000000     0.565470000000     0.309560000000     0.0314143  
H672     H      0.144970000000     0.572330000000     0.275820000000     0.0538277  
H673     H      0.944400000000     0.597590000000     0.150980000000     0.054098   
H674     H      0.910730000000     0.603960000000     0.137260000000     0.0308524  
H675     H      0.936910000000     0.632710000000     0.085790000000     0.0312654  
H676     H      0.970540000000     0.626740000000     0.099020000000     0.0540354  
H677     H      0.993790000000     0.598710000000     0.105710000000     0.0537467  
H678     H      0.028040000000     0.595840000000     0.118340000000     0.0316615  
H679     H      0.008320000000     0.613930000000     0.177310000000     0.0312718  
H680     H      0.973660000000     0.617180000000     0.165040000000     0.0536044  
H681     H      0.125770000000     0.815490000000     0.982960000000     0.0536589  
H682     H      0.120190000000     0.803390000000     0.017190000000     0.0319937  
H683     H      0.113660000000     0.863810000000     0.038480000000     0.0304752  
H684     H      0.118610000000     0.876400000000     0.004540000000     0.0535699  
H685     H      0.111220000000     0.832560000000     0.953660000000     0.053624   
H686     H      0.120610000000     0.845680000000     0.920590000000     0.0309865  
H687     H      0.155470000000     0.891880000000     0.948840000000     0.0308932  
H688     H      0.146850000000     0.879050000000     0.981850000000     0.0536778  
H689     H      0.102380000000     0.681830000000     0.101290000000     0.052961   
H690     H      0.095730000000     0.648470000000     0.114130000000     0.0306304  
H691     H      0.102610000000     0.669630000000     0.174780000000     0.0304607  
H692     H      0.111030000000     0.702690000000     0.162660000000     0.0529643  
H693     H      0.096960000000     0.730910000000     0.149950000000     0.052948   
H694     H      0.101300000000     0.764640000000     0.137800000000     0.0305719  
H695     H      0.125930000000     0.742380000000     0.082240000000     0.0317196  
H696     H      0.123360000000     0.708170000000     0.094480000000     0.0531173  
H697     H      0.220240000000     0.822320000000     0.098110000000     0.0535494  
H698     H      0.186810000000     0.809740000000     0.090830000000     0.0309219  
H699     H      0.159990000000     0.859740000000     0.121760000000     0.0311433  
H700     H      0.193510000000     0.872680000000     0.129830000000     0.0535523  
H701     H      0.223280000000     0.887590000000     0.113810000000     0.0534404  
H702     H      0.257820000000     0.899220000000     0.118940000000     0.0315754  
H703     H      0.277420000000     0.838920000000     0.129980000000     0.0315503  
H704     H      0.243240000000     0.826890000000     0.125550000000     0.0536281  
H705     H      0.986010000000     0.844010000000     0.101120000000     0.0539185  
H706     H      0.951700000000     0.847650000000     0.113420000000     0.0319021  
H707     H      0.971700000000     0.838100000000     0.174110000000     0.0317513  
H708     H      0.006410000000     0.833910000000     0.162220000000     0.0531508  
H709     H      0.035130000000     0.851550000000     0.146700000000     0.0537322  
H710     H      0.069090000000     0.845200000000     0.133680000000     0.0318801  
H711     H      0.044480000000     0.811830000000     0.084220000000     0.0306971  
H712     H      0.010560000000     0.817500000000     0.096890000000     0.0533917  
H713     H      0.238190000000     0.330350000000     0.108000000000     0.0530019  
H714     H      0.204140000000     0.342310000000     0.113010000000     0.0306075  
H715     H      0.226190000000     0.396010000000     0.140710000000     0.0317911  
H716     H      0.260720000000     0.383810000000     0.137560000000     0.0530941  
H717     H      0.287750000000     0.377880000000     0.116870000000     0.0530367  
H718     H      0.321490000000     0.365100000000     0.110010000000     0.0303445  
H719     H      0.299750000000     0.304810000000     0.112600000000     0.0306094  
H720     H      0.266340000000     0.316720000000     0.121270000000     0.0529976  
H721     H      0.089680000000     0.498810000000     0.159850000000     0.0536616  
H722     H      0.077420000000     0.532150000000     0.167850000000     0.0305732  
H723     H      0.125150000000     0.558110000000     0.133010000000     0.0310893  
H724     H      0.137650000000     0.524720000000     0.124170000000     0.0536857  
H725     H      0.092390000000     0.475450000000     0.132460000000     0.0535944  
H726     H      0.104590000000     0.441360000000     0.128140000000     0.0305062  
H727     H      0.165750000000     0.461260000000     0.134070000000     0.0319698  
H728     H      0.154050000000     0.495620000000     0.139090000000     0.053705   
H729     H      0.146540000000     0.381060000000     0.234700000000     0.0535209  
H730     H      0.159390000000     0.387260000000     0.201120000000     0.0309062  
H731     H      0.106830000000     0.360300000000     0.175120000000     0.0310925  
H732     H      0.093550000000     0.353390000000     0.208820000000     0.0535455  
H733     H      0.079940000000     0.370800000000     0.238820000000     0.0534144  
H734     H      0.068260000000     0.366750000000     0.273550000000     0.0314012  
H735     H      0.128200000000     0.350700000000     0.291990000000     0.0320339  
H736     H      0.140230000000     0.354060000000     0.257650000000     0.0537273  
H737     H      0.092190000000     0.207210000000     0.849930000000     0.0534415  
H738     H      0.085370000000     0.173620000000     0.838020000000     0.0310561  
H739     H      0.110630000000     0.148890000000     0.892040000000     0.0315236  
H740     H      0.118340000000     0.182540000000     0.904310000000     0.0536454  
H741     H      0.101650000000     0.212450000000     0.916940000000     0.0535087  
H742     H      0.105450000000     0.247070000000     0.928200000000     0.0316458  
H743     H      0.121180000000     0.264820000000     0.868140000000     0.0318004  
H744     H      0.118270000000     0.230490000000     0.856530000000     0.053498   
H745     H      0.147890000000     0.382940000000     0.025360000000     0.0537169  
H746     H      0.154290000000     0.395350000000     0.059140000000     0.0307765  
H747     H      0.122760000000     0.345370000000     0.084400000000     0.0318419  
H748     H      0.115690000000     0.332610000000     0.050590000000     0.0539146  
H749     H      0.133120000000     0.317750000000     0.021250000000     0.0536692  
H750     H      0.128380000000     0.306050000000     0.986650000000     0.0317159  
H751     H      0.116460000000     0.366240000000     0.967440000000     0.0317813  
H752     H      0.120640000000     0.378360000000     0.001700000000     0.0535446  
H753     H      0.005880000000     0.364120000000     0.851820000000     0.0526822  
H754     H      0.970790000000     0.366870000000     0.840960000000     0.0310262  
H755     H      0.952590000000     0.327100000000     0.888170000000     0.0306488  
H756     H      0.987250000000     0.323080000000     0.898720000000     0.0534268  
H757     H      0.013330000000     0.339200000000     0.915250000000     0.0531237  
H758     H      0.047450000000     0.332370000000     0.926290000000     0.0305716  
H759     H      0.069120000000     0.337580000000     0.865610000000     0.0303665  
H760     H      0.034790000000     0.343320000000     0.853660000000     0.0529295  
H761     H      0.217900000000     0.319010000000     0.887170000000     0.0531723  
H762     H      0.184210000000     0.307690000000     0.895140000000     0.0308233  
H763     H      0.162660000000     0.368330000000     0.896450000000     0.030558   
H764     H      0.196640000000     0.380500000000     0.889990000000     0.0530583  
H765     H      0.224480000000     0.384960000000     0.869170000000     0.0531293  
H766     H      0.259300000000     0.396370000000     0.866790000000     0.0312915  
H767     H      0.279550000000     0.344220000000     0.898600000000     0.0306022  
H768     H      0.245200000000     0.333050000000     0.902540000000     0.053131   
In1      In     0.116510000000     0.316990000000     0.916180000000     2.42595    
In2      In     0.154830000000     0.390640000000     0.130200000000     2.43153    
In3      In     0.115680000000     0.813310000000     0.088480000000     2.43226    
In4      In     0.079450000000     0.602830000000     0.167000000000     2.4287     
In5      In     0.079780000000     0.354540000000     0.344020000000     2.42132    
In6      In     0.367630000000     0.312630000000     0.091800000000     2.4244     
In7      In     0.865740000000     0.634850000000     0.090170000000     2.41359    
In8      In     0.652800000000     0.061020000000     0.876970000000     2.42311    
In9      In     0.577630000000     0.097140000000     0.665940000000     2.40312    
In10     In     0.366230000000     0.138500000000     0.593210000000     2.42143    
In11     In     0.084990000000     0.853790000000     0.662410000000     2.42088    
In12     In     0.664400000000     0.889520000000     0.625450000000     2.41455    
In13     In     0.578460000000     0.850910000000     0.833000000000     2.42107    
In14     In     0.900690000000     0.848130000000     0.163090000000     2.42689    
In15     In     0.571990000000     0.600810000000     0.337270000000     2.41789    
In16     In     0.653780000000     0.391760000000     0.380970000000     2.42015    
In17     In     0.654270000000     0.559920000000     0.126720000000     2.41063    
In18     In     0.581160000000     0.348910000000     0.167930000000     2.42686    
In19     In     0.828650000000     0.890180000000     0.376890000000     2.41255    
In20     In     0.401120000000     0.849830000000     0.343960000000     2.40972    
In21     In     0.616680000000     0.810930000000     0.415220000000     2.41469    
In22     In     0.404940000000     0.351500000000     0.666110000000     2.42341    
In23     In     0.618380000000     0.308170000000     0.591280000000     2.42249    
In24     In     0.120210000000     0.644690000000     0.589500000000     2.39631    
In25     In     0.153390000000     0.567300000000     0.380670000000     2.41204    
In26     In     0.364060000000     0.643550000000     0.423630000000     2.40319    
In27     In     0.329560000000     0.564490000000     0.632000000000     2.4101     
In28     In     0.155000000000     0.892380000000     0.877740000000     2.42691    
In29     In     0.330330000000     0.389770000000     0.879810000000     2.4248     
In30     In     0.368680000000     0.818830000000     0.914510000000     2.41681    
In31     In     0.401120000000     0.603000000000     0.847030000000     2.4255     
In32     In     0.862750000000     0.140930000000     0.919760000000     2.43104    
In33     In     0.616800000000     0.641930000000     0.916100000000     2.42316    
In34     In     0.874360000000     0.807540000000     0.582970000000     2.41654    
In35     In     0.909670000000     0.600610000000     0.668360000000     2.41553    
In36     In     0.825840000000     0.562110000000     0.877740000000     2.41059    
In37     In     0.900040000000     0.352420000000     0.847440000000     2.41239    
In38     In     0.866590000000     0.314400000000     0.420440000000     2.42589    
In39     In     0.827660000000     0.391060000000     0.632760000000     2.4313     
In40     In     0.328610000000     0.887890000000     0.129770000000     2.4269     
In41     In     0.904220000000     0.102650000000     0.343950000000     2.42564    
In42     In     0.077670000000     0.103900000000     0.846260000000     2.42687    
In43     In     0.117160000000     0.141980000000     0.417510000000     2.425      
In44     In     0.151830000000     0.069390000000     0.631770000000     2.42772    
In45     In     0.830410000000     0.062910000000     0.131300000000     2.42515    
In46     In     0.616530000000     0.136520000000     0.091000000000     2.42726    
In47     In     0.329540000000     0.063590000000     0.379430000000     2.42824    
In48     In     0.402700000000     0.100110000000     0.165160000000     2.43004    
N1       N      0.350040000000     0.081170000000     0.324260000000    -0.194831   
N2       N      0.383950000000     0.096560000000     0.223600000000    -0.19431    
N3       N      0.461000000000     0.103190000000     0.145740000000    -0.194283   
N4       N      0.561550000000     0.117740000000     0.110980000000    -0.195088   
N5       N      0.772150000000     0.082330000000     0.126720000000    -0.19435    
N6       N      0.671770000000     0.116700000000     0.109550000000    -0.195011   
N7       N      0.120600000000     0.123940000000     0.476080000000    -0.194588   
N8       N      0.133800000000     0.089970000000     0.576790000000    -0.195368   
N9       N      0.271180000000     0.083060000000     0.382910000000    -0.192765   
N10      N      0.172190000000     0.121970000000     0.398340000000    -0.193397   
N11      N      0.095760000000     0.099550000000     0.787610000000    -0.194375   
N12      N      0.130790000000     0.086910000000     0.686900000000    -0.195196   
N13      N      0.886480000000     0.100160000000     0.285060000000    -0.193972   
N14      N      0.849790000000     0.083170000000     0.185930000000    -0.193324   
N15      N      0.962580000000     0.105130000000     0.363060000000    -0.192653   
N16      N      0.061960000000     0.122220000000     0.399310000000    -0.193302   
N17      N      0.347150000000     0.945930000000     0.133460000000    -0.192925   
N18      N      0.383820000000     0.045020000000     0.146800000000    -0.193265   
N19      N      0.887740000000     0.157770000000     0.365260000000    -0.194456   
N20      N      0.868050000000     0.256210000000     0.401520000000    -0.193573   
N21      N      0.845100000000     0.370230000000     0.577570000000    -0.193984   
N22      N      0.864840000000     0.333390000000     0.478940000000    -0.19407    
N23      N      0.882700000000     0.359230000000     0.788740000000    -0.194515   
N24      N      0.848120000000     0.374280000000     0.688260000000    -0.1945     
N25      N      0.841470000000     0.503420000000     0.884880000000    -0.192972   
N26      N      0.880010000000     0.405160000000     0.871520000000    -0.193355   
N27      N      0.893060000000     0.596420000000     0.727500000000    -0.194224   
N28      N      0.853420000000     0.576260000000     0.824500000000    -0.194903   
N29      N      0.885590000000     0.546740000000     0.652100000000    -0.193742   
N30      N      0.845720000000     0.449430000000     0.634970000000    -0.194061   
N31      N      0.871790000000     0.749180000000     0.601220000000    -0.194503   
N32      N      0.891070000000     0.653310000000     0.643260000000    -0.193342   
N33      N      0.670360000000     0.619990000000     0.894820000000    -0.193724   
N34      N      0.766980000000     0.579450000000     0.872900000000    -0.193387   
N35      N      0.862010000000     0.120600000000     0.977570000000    -0.193013   
N36      N      0.850300000000     0.081660000000     0.076420000000    -0.193467   
N37      N      0.863290000000     0.199610000000     0.902470000000    -0.194236   
N38      N      0.878690000000     0.298330000000     0.866020000000    -0.193708   
N39      N      0.918310000000     0.124280000000     0.898790000000    -0.194742   
N40      N      0.019160000000     0.108450000000     0.864900000000    -0.194141   
N41      N      0.559980000000     0.626170000000     0.898520000000    -0.194494   
N42      N      0.459760000000     0.608770000000     0.864560000000    -0.192676   
N43      N      0.364620000000     0.837200000000     0.973120000000    -0.194643   
N44      N      0.347520000000     0.869010000000     0.074280000000    -0.194855   
N45      N      0.372640000000     0.759970000000     0.897910000000    -0.194677   
N46      N      0.383280000000     0.658630000000     0.865690000000    -0.195042   
N47      N      0.381670000000     0.548570000000     0.866730000000    -0.195061   
N48      N      0.348650000000     0.448010000000     0.878540000000    -0.19423    
N49      N      0.136030000000     0.950730000000     0.877800000000    -0.194162   
N50      N      0.097410000000     0.049450000000     0.865890000000    -0.193337   
N51      N      0.313330000000     0.836860000000     0.894570000000    -0.193535   
N52      N      0.213470000000     0.873320000000     0.879640000000    -0.192811   
N53      N      0.347950000000     0.579150000000     0.688770000000    -0.193598   
N54      N      0.382960000000     0.596110000000     0.788720000000    -0.192692   
N55      N      0.351650000000     0.588690000000     0.579840000000    -0.195362   
N56      N      0.370090000000     0.629430000000     0.483120000000    -0.193414   
N57      N      0.213730000000     0.577870000000     0.387300000000    -0.194283   
N58      N      0.311010000000     0.615860000000     0.409300000000    -0.195186   
N59      N      0.117900000000     0.635850000000     0.528690000000    -0.193663   
N60      N      0.131180000000     0.596600000000     0.430250000000    -0.195927   
N61      N      0.067390000000     0.627980000000     0.616740000000    -0.195978   
N62      N      0.969070000000     0.606010000000     0.652610000000    -0.194351   
N63      N      0.170410000000     0.614000000000     0.608170000000    -0.19457    
N64      N      0.269780000000     0.579680000000     0.628290000000    -0.194231   
N65      N      0.673320000000     0.328550000000     0.609510000000    -0.193274   
N66      N      0.770430000000     0.369320000000     0.628550000000    -0.193135   
N67      N      0.350140000000     0.371830000000     0.824360000000    -0.193414   
N68      N      0.386900000000     0.355710000000     0.724790000000    -0.192811   
N69      N      0.562630000000     0.325430000000     0.611490000000    -0.194261   
N70      N      0.463480000000     0.345450000000     0.647890000000    -0.192832   
N71      N      0.384510000000     0.406440000000     0.648200000000    -0.19501    
N72      N      0.349500000000     0.506620000000     0.634680000000    -0.19313    
N73      N      0.382570000000     0.853900000000     0.285430000000    -0.194407   
N74      N      0.348400000000     0.869320000000     0.184930000000    -0.194959   
N75      N      0.460150000000     0.842780000000     0.360660000000    -0.194523   
N76      N      0.561170000000     0.828330000000     0.394790000000    -0.194394   
N77      N      0.376520000000     0.798290000000     0.365620000000    -0.193117   
N78      N      0.359100000000     0.702060000000     0.406700000000    -0.19344    
N79      N      0.383750000000     0.905390000000     0.363250000000    -0.193543   
N80      N      0.347740000000     0.005190000000     0.376420000000    -0.192838   
N81      N      0.882810000000     0.048080000000     0.361370000000    -0.194777   
N82      N      0.847180000000     0.948370000000     0.373640000000    -0.194361   
N83      N      0.770330000000     0.871140000000     0.382650000000    -0.194718   
N84      N      0.670730000000     0.833650000000     0.396520000000    -0.19464    
N85      N      0.853060000000     0.869700000000     0.429390000000    -0.193017   
N86      N      0.875220000000     0.828130000000     0.525190000000    -0.193481   
N87      N      0.597200000000     0.293090000000     0.148590000000    -0.193304   
N88      N      0.611930000000     0.194360000000     0.110500000000    -0.192671   
N89      N      0.636780000000     0.501420000000     0.127940000000    -0.19352    
N90      N      0.601100000000     0.403350000000     0.148440000000    -0.194587   
N91      N      0.621810000000     0.623450000000     0.974590000000    -0.19379    
N92      N      0.636310000000     0.586770000000     0.074290000000    -0.194731   
N93      N      0.713040000000     0.375000000000     0.385230000000    -0.193931   
N94      N      0.811530000000     0.337140000000     0.404560000000    -0.194188   
N95      N      0.635090000000     0.368860000000     0.434920000000    -0.194599   
N96      N      0.620990000000     0.329890000000     0.533850000000    -0.193812   
N97      N      0.634070000000     0.374310000000     0.325410000000    -0.194286   
N98      N      0.599940000000     0.351630000000     0.226420000000    -0.194389   
N99      N      0.512890000000     0.604300000000     0.354680000000    -0.194401   
N100     N      0.416570000000     0.626990000000     0.395540000000    -0.194414   
N101     N      0.592220000000     0.597500000000     0.279140000000    -0.193957   
N102     N      0.631020000000     0.576840000000     0.181340000000    -0.195034   
N103     N      0.633040000000     0.449160000000     0.376150000000    -0.192654   
N104     N      0.594030000000     0.546180000000     0.354130000000    -0.1931     
N105     N      0.588960000000     0.655110000000     0.360190000000    -0.194081   
N106     N      0.610940000000     0.752580000000     0.397620000000    -0.193026   
N107     N      0.882380000000     0.852870000000     0.221630000000    -0.192629   
N108     N      0.846380000000     0.870850000000     0.321180000000    -0.193374   
N109     N      0.847630000000     0.004240000000     0.134630000000    -0.193332   
N110     N      0.880920000000     0.903340000000     0.145520000000    -0.195173   
N111     N      0.519940000000     0.855140000000     0.852210000000    -0.194386   
N112     N      0.422180000000     0.840270000000     0.893310000000    -0.193265   
N113     N      0.593790000000     0.796070000000     0.855610000000    -0.19421    
N114     N      0.614470000000     0.699020000000     0.894420000000    -0.193824   
N115     N      0.723910000000     0.873860000000     0.620360000000    -0.194426   
N116     N      0.820330000000     0.832940000000     0.598540000000    -0.193505   
N117     N      0.646000000000     0.865790000000     0.571670000000    -0.194219   
N118     N      0.623100000000     0.827650000000     0.474100000000    -0.193067   
N119     N      0.641490000000     0.870380000000     0.679070000000    -0.192948   
N120     N      0.599470000000     0.849630000000     0.775220000000    -0.193545   
N121     N      0.027090000000     0.846910000000     0.642550000000    -0.194233   
N122     N      0.929380000000     0.823260000000     0.605620000000    -0.194146   
N123     N      0.102780000000     0.858390000000     0.721050000000    -0.193344   
N124     N      0.135170000000     0.875100000000     0.822080000000    -0.194598   
N125     N      0.126680000000     0.704090000000     0.602490000000    -0.193337   
N126     N      0.109410000000     0.801500000000     0.641200000000    -0.194477   
N127     N      0.101290000000     0.910550000000     0.647220000000    -0.19374    
N128     N      0.134580000000     0.010990000000     0.635470000000    -0.192462   
N129     N      0.361450000000     0.119810000000     0.534780000000    -0.194483   
N130     N      0.347200000000     0.084290000000     0.434530000000    -0.194994   
N131     N      0.371890000000     0.196710000000     0.611350000000    -0.194526   
N132     N      0.386680000000     0.296760000000     0.645760000000    -0.194798   
N133     N      0.210600000000     0.086920000000     0.628380000000    -0.192739   
N134     N      0.310770000000     0.121600000000     0.613370000000    -0.193286   
N135     N      0.420050000000     0.115300000000     0.611950000000    -0.193202   
N136     N      0.518620000000     0.094910000000     0.648570000000    -0.192953   
N137     N      0.645510000000     0.947670000000     0.631180000000    -0.194361   
N138     N      0.607290000000     0.046170000000     0.647920000000    -0.194542   
N139     N      0.594000000000     0.151760000000     0.643500000000    -0.195721   
N140     N      0.616970000000     0.249910000000     0.609760000000    -0.19408    
N141     N      0.808390000000     0.117810000000     0.903140000000    -0.194454   
N142     N      0.711040000000     0.080120000000     0.880150000000    -0.193825   
N143     N      0.603400000000     0.904710000000     0.847880000000    -0.193577   
N144     N      0.640680000000     0.001480000000     0.870110000000    -0.193629   
N145     N      0.625610000000     0.080190000000     0.825260000000    -0.194396   
N146     N      0.587860000000     0.095640000000     0.726550000000    -0.19384    
N147     N      0.621110000000     0.118510000000     0.032360000000    -0.192677   
N148     N      0.637590000000     0.082100000000     0.932790000000    -0.194077   
N149     N      0.840530000000     0.588620000000     0.931270000000    -0.194829   
N150     N      0.861410000000     0.623840000000     0.029750000000    -0.193855   
N151     N      0.869410000000     0.693190000000     0.108330000000    -0.193961   
N152     N      0.882340000000     0.793470000000     0.142710000000    -0.194932   
N153     N      0.814040000000     0.608250000000     0.110280000000    -0.196211   
N154     N      0.714710000000     0.571500000000     0.124820000000    -0.194048   
N155     N      0.384050000000     0.155160000000     0.146200000000    -0.193252   
N156     N      0.370320000000     0.254280000000     0.109580000000    -0.192815   
N157     N      0.364160000000     0.331170000000     0.033390000000    -0.192698   
N158     N      0.348900000000     0.369370000000     0.934620000000    -0.193496   
N159     N      0.422780000000     0.329850000000     0.112820000000    -0.195067   
N160     N      0.523070000000     0.345500000000     0.147990000000    -0.193879   
N161     N      0.021210000000     0.348400000000     0.361930000000    -0.192639   
N162     N      0.922200000000     0.328960000000     0.398410000000    -0.194229   
N163     N      0.100160000000     0.409240000000     0.362580000000    -0.195055   
N164     N      0.134590000000     0.509200000000     0.377290000000    -0.194294   
N165     N      0.098760000000     0.299900000000     0.364130000000    -0.194875   
N166     N      0.113750000000     0.199900000000     0.398280000000    -0.194381   
N167     N      0.098840000000     0.600470000000     0.225150000000    -0.192436   
N168     N      0.134970000000     0.583870000000     0.324560000000    -0.193391   
N169     N      0.921440000000     0.618850000000     0.110620000000    -0.193522   
N170     N      0.020650000000     0.604920000000     0.148660000000    -0.193576   
N171     N      0.116930000000     0.832740000000     0.030290000000    -0.194008   
N172     N      0.138640000000     0.869710000000     0.932370000000    -0.194569   
N173     N      0.098290000000     0.656820000000     0.145330000000    -0.195015   
N174     N      0.113810000000     0.755900000000     0.109130000000    -0.193892   
N175     N      0.171020000000     0.833860000000     0.105740000000    -0.194526   
N176     N      0.270100000000     0.869890000000     0.124540000000    -0.192989   
N177     N      0.959230000000     0.842970000000     0.144620000000    -0.192661   
N178     N      0.059200000000     0.828060000000     0.108070000000    -0.193273   
N179     N      0.212760000000     0.370030000000     0.127130000000    -0.193852   
N180     N      0.312880000000     0.334120000000     0.110400000000    -0.195156   
N181     N      0.100420000000     0.547490000000     0.151020000000    -0.194763   
N182     N      0.136000000000     0.448860000000     0.131130000000    -0.194151   
N183     N      0.134000000000     0.374280000000     0.185730000000    -0.194622   
N184     N      0.097430000000     0.358720000000     0.285260000000    -0.192687   
N185     N      0.097350000000     0.158870000000     0.864250000000    -0.193717   
N186     N      0.113280000000     0.258430000000     0.898940000000    -0.1928     
N187     N      0.139040000000     0.371210000000     0.074170000000    -0.193269   
N188     N      0.122300000000     0.335310000000     0.974580000000    -0.192886   
N189     N      0.959210000000     0.347340000000     0.863880000000    -0.194517   
N190     N      0.060640000000     0.334160000000     0.896690000000    -0.19519    
N191     N      0.171160000000     0.337220000000     0.896730000000    -0.194869   
N192     N      0.271860000000     0.371090000000     0.882440000000    -0.194401   
O1       O      0.117750000000     0.292170000000     0.892740000000    -0.505903   
O2       O      0.111950000000     0.283600000000     0.923200000000    -0.488302   
O3       O      0.137030000000     0.341690000000     0.903470000000    -0.495465   
O4       O      0.095080000000     0.329490000000     0.891870000000    -0.497748   
O5       O      0.122030000000     0.310620000000     0.949790000000    -0.489039   
O6       O      0.082980000000     0.322880000000     0.920850000000    -0.515975   
O7       O      0.149640000000     0.312660000000     0.908190000000    -0.512235   
O8       O      0.116780000000     0.340840000000     0.940650000000    -0.507699   
O9       O      0.178200000000     0.366110000000     0.124820000000    -0.512298   
O10      O      0.189020000000     0.394830000000     0.133860000000    -0.488189   
O11      O      0.138290000000     0.368950000000     0.109100000000    -0.490999   
O12      O      0.131770000000     0.374790000000     0.150770000000    -0.493331   
O13      O      0.161020000000     0.424430000000     0.130570000000    -0.492729   
O14      O      0.157510000000     0.388240000000     0.164280000000    -0.51816    
O15      O      0.154110000000     0.393600000000     0.096100000000    -0.513023   
O16      O      0.130400000000     0.414730000000     0.129310000000    -0.513919   
O17      O      0.111480000000     0.790230000000     0.113260000000    -0.512951   
O18      O      0.119290000000     0.779330000000     0.083970000000    -0.488666   
O19      O      0.094150000000     0.829860000000     0.110040000000    -0.490767   
O20      O      0.135970000000     0.835730000000     0.105450000000    -0.493089   
O21      O      0.116360000000     0.807590000000     0.054350000000    -0.49293    
O22      O      0.149880000000     0.811090000000     0.090300000000    -0.517979   
O23      O      0.081490000000     0.813110000000     0.085660000000    -0.513249   
O24      O      0.114570000000     0.837840000000     0.064720000000    -0.514601   
O25      O      0.104090000000     0.602440000000     0.190730000000    -0.50724    
O26      O      0.073470000000     0.601530000000     0.201020000000    -0.489091   
O27      O      0.090480000000     0.623210000000     0.141380000000    -0.496476   
O28      O      0.101930000000     0.582230000000     0.150400000000    -0.496061   
O29      O      0.045540000000     0.608240000000     0.173120000000    -0.491394   
O30      O      0.078020000000     0.568840000000     0.167120000000    -0.516298   
O31      O      0.088300000000     0.635620000000     0.170900000000    -0.511059   
O32      O      0.054710000000     0.599300000000     0.143610000000    -0.512362   
O33      O      0.055080000000     0.354170000000     0.367750000000    -0.506922   
O34      O      0.046140000000     0.349250000000     0.337230000000    -0.488396   
O35      O      0.104660000000     0.375300000000     0.356180000000    -0.497509   
O36      O      0.092510000000     0.333870000000     0.368710000000    -0.495289   
O37      O      0.072960000000     0.360070000000     0.310430000000    -0.487596   
O38      O      0.087250000000     0.321510000000     0.339540000000    -0.511223   
O39      O      0.075310000000     0.387610000000     0.351660000000    -0.512523   
O40      O      0.103260000000     0.353340000000     0.319150000000    -0.506317   
O41      O      0.369230000000     0.336290000000     0.067460000000    -0.507516   
O42      O      0.362390000000     0.306470000000     0.058000000000    -0.489073   
O43      O      0.388440000000     0.324430000000     0.116920000000    -0.496508   
O44      O      0.347080000000     0.337890000000     0.103910000000    -0.496125   
O45      O      0.372220000000     0.279020000000     0.085030000000    -0.488627   
O46      O      0.334250000000     0.309070000000     0.099090000000    -0.511919   
O47      O      0.401180000000     0.318770000000     0.087930000000    -0.512929   
O48      O      0.366050000000     0.288170000000     0.115320000000    -0.507536   
O49      O      0.873070000000     0.659110000000     0.113130000000    -0.50606    
O50      O      0.861430000000     0.668670000000     0.084790000000    -0.486328   
O51      O      0.886420000000     0.618230000000     0.112340000000    -0.495133   
O52      O      0.846470000000     0.606940000000     0.097030000000    -0.503735   
O53      O      0.853160000000     0.641590000000     0.058720000000    -0.496391   
O54      O      0.834990000000     0.635440000000     0.105750000000    -0.51576    
O55      O      0.899920000000     0.633690000000     0.087600000000    -0.503263   
O56      O      0.875080000000     0.618300000000     0.061340000000    -0.49855    
O57      O      0.658140000000     0.030390000000     0.862060000000    -0.501293   
O58      O      0.636800000000     0.032140000000     0.886060000000    -0.504585   
O59      O      0.624420000000     0.069010000000     0.858400000000    -0.497973   
O60      O      0.635230000000     0.082690000000     0.897810000000    -0.495447   
O61      O      0.686880000000     0.055050000000     0.879530000000    -0.493743   
O62      O      0.653590000000     0.059980000000     0.911130000000    -0.509631   
O63      O      0.653360000000     0.074090000000     0.845390000000    -0.507744   
O64      O      0.676760000000     0.085260000000     0.876110000000    -0.505309   
O65      O      0.591760000000     0.109110000000     0.694730000000    -0.506516   
O66      O      0.572030000000     0.084090000000     0.697540000000    -0.493055   
O67      O      0.597810000000     0.117180000000     0.645900000000    -0.500984   
O68      O      0.604980000000     0.075630000000     0.666460000000    -0.499557   
O69      O      0.543580000000     0.097820000000     0.672950000000    -0.489279   
O70      O      0.581130000000     0.069180000000     0.646110000000    -0.49457    
O71      O      0.574270000000     0.130910000000     0.662930000000    -0.512017   
O72      O      0.552920000000     0.092500000000     0.642610000000    -0.496059   
O73      O      0.356310000000     0.116460000000     0.569040000000    -0.514783   
O74      O      0.372170000000     0.142370000000     0.559200000000    -0.49014    
O75      O      0.345460000000     0.117230000000     0.610690000000    -0.487956   
O76      O      0.385500000000     0.120320000000     0.615470000000    -0.488025   
O77      O      0.361750000000     0.172380000000     0.588470000000    -0.491973   
O78      O      0.399660000000     0.131730000000     0.588990000000    -0.51056    
O79      O      0.332690000000     0.143920000000     0.598370000000    -0.510165   
O80      O      0.375830000000     0.162560000000     0.615590000000    -0.514511   
O81      O      0.061460000000     0.850260000000     0.637680000000    -0.513354   
O82      O      0.050730000000     0.851540000000     0.667950000000    -0.49234    
O83      O      0.102060000000     0.835390000000     0.638430000000    -0.492556   
O84      O      0.106030000000     0.876100000000     0.646860000000    -0.491319   
O85      O      0.079990000000     0.848650000000     0.696350000000    -0.485828   
O86      O      0.079220000000     0.887440000000     0.660820000000    -0.511532   
O87      O      0.094260000000     0.820970000000     0.665910000000    -0.512656   
O88      O      0.107500000000     0.862200000000     0.686760000000    -0.510333   
O89      O      0.640120000000     0.913870000000     0.625640000000    -0.509233   
O90      O      0.670470000000     0.923110000000     0.630500000000    -0.495488   
O91      O      0.641160000000     0.872190000000     0.644120000000    -0.491409   
O92      O      0.652120000000     0.863520000000     0.606080000000    -0.493904   
O93      O      0.696360000000     0.894050000000     0.612950000000    -0.498917   
O94      O      0.657100000000     0.891680000000     0.591990000000    -0.508759   
O95      O      0.665140000000     0.886930000000     0.659640000000    -0.503765   
O96      O      0.692010000000     0.870660000000     0.634220000000    -0.501826   
O97      O      0.554350000000     0.859220000000     0.856280000000    -0.512518   
O98      O      0.544230000000     0.848460000000     0.827810000000    -0.49277    
O99      O      0.596320000000     0.871330000000     0.854410000000    -0.487868   
O100     O      0.597650000000     0.830550000000     0.853400000000    -0.492183   
O101     O      0.573880000000     0.853510000000     0.798870000000    -0.490572   
O102     O      0.575060000000     0.817030000000     0.835080000000    -0.513725   
O103     O      0.585120000000     0.883790000000     0.827000000000    -0.509747   
O104     O      0.603030000000     0.844920000000     0.809600000000    -0.510197   
O105     O      0.876770000000     0.847900000000     0.187600000000    -0.506474   
O106     O      0.907240000000     0.852810000000     0.196830000000    -0.48894    
O107     O      0.888100000000     0.827450000000     0.138340000000    -0.496003   
O108     O      0.876150000000     0.869310000000     0.150700000000    -0.496841   
O109     O      0.934530000000     0.843470000000     0.169590000000    -0.487888   
O110     O      0.905400000000     0.881170000000     0.156390000000    -0.515041   
O111     O      0.893540000000     0.815120000000     0.167440000000    -0.513608   
O112     O      0.925090000000     0.847540000000     0.139090000000    -0.507587   
O113     O      0.596750000000     0.602650000000     0.313370000000    -0.509827   
O114     O      0.566840000000     0.596610000000     0.303290000000    -0.492733   
O115     O      0.594370000000     0.580980000000     0.354670000000    -0.490909   
O116     O      0.586990000000     0.620380000000     0.361730000000    -0.491349   
O117     O      0.538810000000     0.608940000000     0.331680000000    -0.495796   
O118     O      0.574980000000     0.634730000000     0.335720000000    -0.511066   
O119     O      0.571300000000     0.566690000000     0.337460000000    -0.508001   
O120     O      0.546150000000     0.594560000000     0.359340000000    -0.507096   
O121     O      0.628620000000     0.415070000000     0.380540000000    -0.506265   
O122     O      0.658930000000     0.425600000000     0.377870000000    -0.490177   
O123     O      0.643090000000     0.365810000000     0.400990000000    -0.496241   
O124     O      0.632010000000     0.374480000000     0.360370000000    -0.493965   
O125     O      0.687090000000     0.398360000000     0.388760000000    -0.49172    
O126     O      0.655780000000     0.391140000000     0.346740000000    -0.512068   
O127     O      0.644240000000     0.394970000000     0.414000000000    -0.508034   
O128     O      0.679700000000     0.369730000000     0.376650000000    -0.510635   
O129     O      0.630650000000     0.535400000000     0.125030000000    -0.501888   
O130     O      0.661330000000     0.526160000000     0.128450000000    -0.491063   
O131     O      0.650680000000     0.587630000000     0.106220000000    -0.499815   
O132     O      0.631850000000     0.578210000000     0.146300000000    -0.497994   
O133     O      0.686160000000     0.554650000000     0.113750000000    -0.495726   
O134     O      0.653240000000     0.559330000000     0.160940000000    -0.508941   
O135     O      0.638430000000     0.559970000000     0.096170000000    -0.503233   
O136     O      0.682620000000     0.575420000000     0.138000000000    -0.505333   
O137     O      0.605660000000     0.349150000000     0.192080000000    -0.513446   
O138     O      0.575030000000     0.349770000000     0.201970000000    -0.494381   
O139     O      0.603620000000     0.368690000000     0.150450000000    -0.49234    
O140     O      0.598150000000     0.327770000000     0.146460000000    -0.490678   
O141     O      0.546960000000     0.353100000000     0.172350000000    -0.487239   
O142     O      0.582050000000     0.314990000000     0.171190000000    -0.511675   
O143     O      0.578330000000     0.382720000000     0.164540000000    -0.517046   
O144     O      0.557600000000     0.342540000000     0.143850000000    -0.511468   
O145     O      0.804840000000     0.867490000000     0.386210000000    -0.5141     
O146     O      0.794270000000     0.894560000000     0.372940000000    -0.491328   
O147     O      0.847200000000     0.867450000000     0.395000000000    -0.487258   
O148     O      0.850070000000     0.872790000000     0.355900000000    -0.487148   
O149     O      0.824320000000     0.923930000000     0.383430000000    -0.490312   
O150     O      0.823870000000     0.886300000000     0.343040000000    -0.508097   
O151     O      0.836050000000     0.893390000000     0.410360000000    -0.50677    
O152     O      0.850900000000     0.914400000000     0.367940000000    -0.514525   
O153     O      0.379260000000     0.859830000000     0.319590000000    -0.513489   
O154     O      0.404850000000     0.842770000000     0.310060000000    -0.489577   
O155     O      0.379390000000     0.871000000000     0.360790000000    -0.487453   
O156     O      0.384540000000     0.831980000000     0.368310000000    -0.487883   
O157     O      0.435310000000     0.854000000000     0.338660000000    -0.490211   
O158     O      0.391130000000     0.817310000000     0.340420000000    -0.506268   
O159     O      0.406690000000     0.883160000000     0.349100000000    -0.507836   
O160     O      0.425800000000     0.838930000000     0.365230000000    -0.51245    
O161     O      0.618060000000     0.785960000000     0.391910000000    -0.505375   
O162     O      0.610330000000     0.777700000000     0.422000000000    -0.489648   
O163     O      0.636470000000     0.836770000000     0.403490000000    -0.496885   
O164     O      0.595660000000     0.823370000000     0.390490000000    -0.494842   
O165     O      0.625820000000     0.804360000000     0.448070000000    -0.490257   
O166     O      0.583140000000     0.817280000000     0.419420000000    -0.507945   
O167     O      0.649870000000     0.807890000000     0.406590000000    -0.509306   
O168     O      0.613310000000     0.833030000000     0.441130000000    -0.504296   
O169     O      0.429510000000     0.351110000000     0.642240000000    -0.507141   
O170     O      0.438660000000     0.346290000000     0.672710000000    -0.488776   
O171     O      0.380090000000     0.372460000000     0.653970000000    -0.497659   
O172     O      0.392080000000     0.330830000000     0.641440000000    -0.495125   
O173     O      0.411500000000     0.356950000000     0.699770000000    -0.488755   
O174     O      0.398250000000     0.318390000000     0.670340000000    -0.512203   
O175     O      0.409340000000     0.384580000000     0.658990000000    -0.512762   
O176     O      0.381300000000     0.350310000000     0.690840000000    -0.506632   
O177     O      0.623600000000     0.333040000000     0.568460000000    -0.511767   
O178     O      0.614860000000     0.304520000000     0.556920000000    -0.488788   
O179     O      0.638310000000     0.329610000000     0.609360000000    -0.490301   
O180     O      0.597600000000     0.324910000000     0.613600000000    -0.490362   
O181     O      0.620030000000     0.274250000000     0.585000000000    -0.492171   
O182     O      0.584100000000     0.310040000000     0.588610000000    -0.513883   
O183     O      0.652710000000     0.306020000000     0.592820000000    -0.510657   
O184     O      0.617220000000     0.284100000000     0.615480000000    -0.514715   
O185     O      0.132390000000     0.649190000000     0.557530000000    -0.494195   
O186     O      0.104510000000     0.633640000000     0.560900000000    -0.502563   
O187     O      0.090700000000     0.651370000000     0.606180000000    -0.511097   
O188     O      0.145730000000     0.621770000000     0.584780000000    -0.502233   
O189     O      0.115340000000     0.678000000000     0.582380000000    -0.49302    
O190     O      0.143130000000     0.635210000000     0.613750000000    -0.490639   
O191     O      0.097800000000     0.620760000000     0.600770000000    -0.499939   
O192     O      0.133810000000     0.670510000000     0.607550000000    -0.493208   
O193     O      0.130120000000     0.543340000000     0.373620000000    -0.507301   
O194     O      0.158340000000     0.533410000000     0.385390000000    -0.491321   
O195     O      0.133250000000     0.585760000000     0.359500000000    -0.494789   
O196     O      0.135530000000     0.568470000000     0.410220000000    -0.511335   
O197     O      0.183880000000     0.562270000000     0.396400000000    -0.498196   
O198     O      0.146780000000     0.596010000000     0.398930000000    -0.503275   
O199     O      0.155890000000     0.566750000000     0.346520000000    -0.501548   
O200     O      0.183290000000     0.581050000000     0.370540000000    -0.499498   
O201     O      0.352190000000     0.668260000000     0.402930000000    -0.50442    
O202     O      0.368850000000     0.677110000000     0.428950000000    -0.490253   
O203     O      0.343440000000     0.626460000000     0.401560000000    -0.494973   
O204     O      0.385700000000     0.619770000000     0.410390000000    -0.488871   
O205     O      0.359720000000     0.650390000000     0.457290000000    -0.488239   
O206     O      0.394320000000     0.650400000000     0.408710000000    -0.508184   
O207     O      0.332190000000     0.632970000000     0.430920000000    -0.511819   
O208     O      0.377040000000     0.624600000000     0.449240000000    -0.503202   
O209     O      0.353420000000     0.540790000000     0.638880000000    -0.505491   
O210     O      0.325380000000     0.530700000000     0.626860000000    -0.483705   
O211     O      0.350970000000     0.580200000000     0.653940000000    -0.491981   
O212     O      0.343360000000     0.590450000000     0.613800000000    -0.495382   
O213     O      0.296210000000     0.556810000000     0.626530000000    -0.492226   
O214     O      0.339130000000     0.562590000000     0.598890000000    -0.513818   
O215     O      0.325680000000     0.564640000000     0.666190000000    -0.507881   
O216     O      0.303340000000     0.586810000000     0.634680000000    -0.507383   
O217     O      0.179170000000     0.868170000000     0.875820000000    -0.506789   
O218     O      0.188880000000     0.898200000000     0.881370000000    -0.489286   
O219     O      0.130260000000     0.880690000000     0.856330000000    -0.494461   
O220     O      0.138180000000     0.869430000000     0.897340000000    -0.494928   
O221     O      0.160470000000     0.926100000000     0.872830000000    -0.493521   
O222     O      0.155090000000     0.892370000000     0.911950000000    -0.515982   
O223     O      0.159520000000     0.886200000000     0.844270000000    -0.511652   
O224     O      0.131400000000     0.916810000000     0.882770000000    -0.512632   
O225     O      0.306190000000     0.366700000000     0.886720000000    -0.514801   
O226     O      0.296320000000     0.394570000000     0.874480000000    -0.489904   
O227     O      0.347100000000     0.366970000000     0.899720000000    -0.488506   
O228     O      0.353060000000     0.373400000000     0.859220000000    -0.489548   
O229     O      0.325150000000     0.423370000000     0.885800000000    -0.490662   
O230     O      0.326680000000     0.386180000000     0.845920000000    -0.512415   
O231     O      0.334430000000     0.393010000000     0.913670000000    -0.51224    
O232     O      0.353400000000     0.414060000000     0.873370000000    -0.514594   
O233     O      0.359420000000     0.841080000000     0.938920000000    -0.513854   
O234     O      0.375200000000     0.814840000000     0.948350000000    -0.490722   
O235     O      0.348010000000     0.840750000000     0.897470000000    -0.487721   
O236     O      0.387640000000     0.835210000000     0.890770000000    -0.489252   
O237     O      0.363180000000     0.785290000000     0.920090000000    -0.49112    
O238     O      0.402140000000     0.825930000000     0.917900000000    -0.508968   
O239     O      0.335070000000     0.814080000000     0.909370000000    -0.509195   
O240     O      0.377990000000     0.793790000000     0.892930000000    -0.512995   
O241     O      0.425730000000     0.604360000000     0.870750000000    -0.506094   
O242     O      0.434840000000     0.607100000000     0.839980000000    -0.488076   
O243     O      0.376630000000     0.582320000000     0.859980000000    -0.496594   
O244     O      0.388250000000     0.624610000000     0.870990000000    -0.496807   
O245     O      0.407760000000     0.597370000000     0.813440000000    -0.488896   
O246     O      0.394310000000     0.636010000000     0.841640000000    -0.514388   
O247     O      0.406170000000     0.570340000000     0.855490000000    -0.513594   
O248     O      0.377160000000     0.601900000000     0.822620000000    -0.506692   
O249     O      0.857400000000     0.165920000000     0.897070000000    -0.512838   
O250     O      0.868040000000     0.174440000000     0.926130000000    -0.495236   
O251     O      0.843440000000     0.117920000000     0.902700000000    -0.496312   
O252     O      0.883990000000     0.129950000000     0.894420000000    -0.494806   
O253     O      0.859070000000     0.145940000000     0.953810000000    -0.489802   
O254     O      0.896260000000     0.134720000000     0.923700000000    -0.512083   
O255     O      0.828470000000     0.140690000000     0.919820000000    -0.515802   
O256     O      0.865470000000     0.116310000000     0.943130000000    -0.507366   
O257     O      0.615390000000     0.664580000000     0.890560000000    -0.511685   
O258     O      0.617510000000     0.676100000000     0.920520000000    -0.49032    
O259     O      0.594850000000     0.624930000000     0.895530000000    -0.492464   
O260     O      0.635640000000     0.618530000000     0.899010000000    -0.491692   
O261     O      0.618220000000     0.648170000000     0.950260000000    -0.490495   
O262     O      0.650870000000     0.643880000000     0.911280000000    -0.511287   
O263     O      0.582530000000     0.641790000000     0.919970000000    -0.513741   
O264     O      0.619840000000     0.617850000000     0.940210000000    -0.512757   
O265     O      0.880990000000     0.831530000000     0.559450000000    -0.508262   
O266     O      0.870600000000     0.803120000000     0.548940000000    -0.490646   
O267     O      0.894570000000     0.826850000000     0.603390000000    -0.491733   
O268     O      0.841390000000     0.815300000000     0.576970000000    -0.508948   
O269     O      0.866080000000     0.783140000000     0.605560000000    -0.512777   
O270     O      0.853730000000     0.824560000000     0.605150000000    -0.487216   
O271     O      0.908550000000     0.804360000000     0.585180000000    -0.512736   
O272     O      0.878010000000     0.773670000000     0.577280000000    -0.492287   
O273     O      0.915090000000     0.590580000000     0.700920000000    -0.49753    
O274     O      0.888540000000     0.607630000000     0.694820000000    -0.501771   
O275     O      0.884100000000     0.581430000000     0.654950000000    -0.494087   
O276     O      0.895350000000     0.618730000000     0.642520000000    -0.493106   
O277     O      0.942280000000     0.610050000000     0.674810000000    -0.498556   
O278     O      0.904500000000     0.634300000000     0.669090000000    -0.50471    
O279     O      0.911270000000     0.566840000000     0.664060000000    -0.506932   
O280     O      0.936270000000     0.595650000000     0.646760000000    -0.503719   
O281     O      0.846320000000     0.537380000000     0.889980000000    -0.504427   
O282     O      0.819600000000     0.528540000000     0.874430000000    -0.48765    
O283     O      0.848470000000     0.577570000000     0.898970000000    -0.492511   
O284     O      0.841110000000     0.584480000000     0.856260000000    -0.493321   
O285     O      0.791880000000     0.556010000000     0.880050000000    -0.488565   
O286     O      0.838270000000     0.554210000000     0.846570000000    -0.511822   
O287     O      0.818360000000     0.573260000000     0.909360000000    -0.512845   
O288     O      0.801200000000     0.583860000000     0.867540000000    -0.505278   
O289     O      0.878950000000     0.364100000000     0.823040000000    -0.512488   
O290     O      0.904430000000     0.347040000000     0.813320000000    -0.490252   
O291     O      0.876260000000     0.371430000000     0.863950000000    -0.488258   
O292     O      0.883780000000     0.332430000000     0.870330000000    -0.489187   
O293     O      0.933880000000     0.358770000000     0.842580000000    -0.490651   
O294     O      0.892560000000     0.319480000000     0.842210000000    -0.508071   
O295     O      0.904670000000     0.384840000000     0.857360000000    -0.506851   
O296     O      0.925130000000     0.341560000000     0.868120000000    -0.513128   
O297     O      0.863860000000     0.290240000000     0.396170000000    -0.508985   
O298     O      0.869440000000     0.280710000000     0.426340000000    -0.491466   
O299     O      0.887160000000     0.329600000000     0.397080000000    -0.493543   
O300     O      0.846540000000     0.338470000000     0.405650000000    -0.493675   
O301     O      0.862940000000     0.308720000000     0.454330000000    -0.492136   
O302     O      0.832320000000     0.312780000000     0.418200000000    -0.512712   
O303     O      0.900910000000     0.314690000000     0.421940000000    -0.513519   
O304     O      0.869690000000     0.338410000000     0.444780000000    -0.510907   
O305     O      0.804860000000     0.365750000000     0.633090000000    -0.509873   
O306     O      0.793460000000     0.395480000000     0.629050000000    -0.491325   
O307     O      0.852310000000     0.378530000000     0.653770000000    -0.494946   
O308     O      0.844850000000     0.368720000000     0.612550000000    -0.493372   
O309     O      0.821420000000     0.424650000000     0.638460000000    -0.4929     
O310     O      0.828700000000     0.392710000000     0.598590000000    -0.513786   
O311     O      0.823570000000     0.385750000000     0.666390000000    -0.51378    
O312     O      0.850780000000     0.415730000000     0.628640000000    -0.513818   
O313     O      0.304200000000     0.864140000000     0.129300000000    -0.508966   
O314     O      0.294800000000     0.894500000000     0.125180000000    -0.489267   
O315     O      0.352890000000     0.874360000000     0.150590000000    -0.496693   
O316     O      0.341900000000     0.863880000000     0.108450000000    -0.49469    
O317     O      0.322300000000     0.921490000000     0.134760000000    -0.488557   
O318     O      0.335030000000     0.892710000000     0.096490000000    -0.513822   
O319     O      0.324230000000     0.881810000000     0.163230000000    -0.515472   
O320     O      0.352620000000     0.911980000000     0.129060000000    -0.507977   
O321     O      0.928280000000     0.101290000000     0.368340000000    -0.506639   
O322     O      0.938130000000     0.106040000000     0.338030000000    -0.48987    
O323     O      0.878870000000     0.082200000000     0.355760000000    -0.494854   
O324     O      0.887940000000     0.123000000000     0.366950000000    -0.49553    
O325     O      0.910420000000     0.096410000000     0.310340000000    -0.492687   
O326     O      0.903440000000     0.136640000000     0.342390000000    -0.514305   
O327     O      0.908010000000     0.069450000000     0.350880000000    -0.511146   
O328     O      0.881150000000     0.106790000000     0.318880000000    -0.510712   
O329     O      0.100210000000     0.095240000000     0.821850000000    -0.514894   
O330     O      0.072620000000     0.108760000000     0.812310000000    -0.489987   
O331     O      0.100630000000     0.083930000000     0.862760000000    -0.489723   
O332     O      0.094710000000     0.124430000000     0.868300000000    -0.489458   
O333     O      0.043670000000     0.098920000000     0.841680000000    -0.491537   
O334     O      0.082550000000     0.137210000000     0.841470000000    -0.512723   
O335     O      0.073460000000     0.070600000000     0.852010000000    -0.511679   
O336     O      0.053520000000     0.112280000000     0.869190000000    -0.515338   
O337     O      0.109430000000     0.165790000000     0.394240000000    -0.514947   
O338     O      0.122470000000     0.175760000000     0.421850000000    -0.491777   
O339     O      0.096770000000     0.124410000000     0.395780000000    -0.488817   
O340     O      0.137270000000     0.119570000000     0.400230000000    -0.488689   
O341     O      0.111970000000     0.147070000000     0.451460000000    -0.490477   
O342     O      0.151040000000     0.145380000000     0.413240000000    -0.5116     
O343     O      0.083370000000     0.137940000000     0.421790000000    -0.51152    
O344     O      0.125000000000     0.119370000000     0.441830000000    -0.515426   
O345     O      0.128300000000     0.044800000000     0.631220000000    -0.50613    
O346     O      0.158910000000     0.035950000000     0.636270000000    -0.488578   
O347     O      0.139770000000     0.094310000000     0.610990000000    -0.497923   
O348     O      0.126730000000     0.081600000000     0.652550000000    -0.497237   
O349     O      0.185540000000     0.062720000000     0.626590000000    -0.488735   
O350     O      0.155750000000     0.075930000000     0.665170000000    -0.514382   
O351     O      0.144700000000     0.065260000000     0.598500000000    -0.514943   
O352     O      0.176540000000     0.092780000000     0.633350000000    -0.505938   
O353     O      0.806550000000     0.085760000000     0.122390000000    -0.514765   
O354     O      0.796320000000     0.059150000000     0.136800000000    -0.490358   
O355     O      0.847760000000     0.084900000000     0.111190000000    -0.488841   
O356     O      0.853410000000     0.079130000000     0.151340000000    -0.489979   
O357     O      0.824950000000     0.029310000000     0.125790000000    -0.49149    
O358     O      0.826050000000     0.068960000000     0.164810000000    -0.511106   
O359     O      0.835620000000     0.058530000000     0.097680000000    -0.511127   
O360     O      0.852500000000     0.038130000000     0.139720000000    -0.51467    
O361     O      0.617530000000     0.112770000000     0.066500000000    -0.508334   
O362     O      0.620100000000     0.143250000000     0.057130000000    -0.487693   
O363     O      0.583260000000     0.129350000000     0.086430000000    -0.514036   
O364     O      0.637530000000     0.112250000000     0.103940000000    -0.495904   
O365     O      0.612160000000     0.170250000000     0.085090000000    -0.488818   
O366     O      0.649980000000     0.140890000000     0.097370000000    -0.514185   
O367     O      0.595700000000     0.123740000000     0.115480000000    -0.496567   
O368     O      0.616250000000     0.160360000000     0.115410000000    -0.508249   
O369     O      0.353280000000     0.039040000000     0.381080000000    -0.508372   
O370     O      0.323100000000     0.030050000000     0.374520000000    -0.490243   
O371     O      0.342800000000     0.088030000000     0.400020000000    -0.496028   
O372     O      0.354480000000     0.075520000000     0.358490000000    -0.495998   
O373     O      0.295570000000     0.057890000000     0.384080000000    -0.488643   
O374     O      0.325390000000     0.069970000000     0.346050000000    -0.514167   
O375     O      0.334990000000     0.059960000000     0.413040000000    -0.514749   
O376     O      0.305410000000     0.087770000000     0.378370000000    -0.50809    
O377     O      0.379490000000     0.092860000000     0.189270000000    -0.515401   
O378     O      0.407510000000     0.105040000000     0.199170000000    -0.490188   
O379     O      0.380470000000     0.079670000000     0.148310000000    -0.489378   
O380     O      0.385620000000     0.120500000000     0.143010000000    -0.489516   
O381     O      0.436770000000     0.095110000000     0.169640000000    -0.490918   
O382     O      0.398600000000     0.133670000000     0.169310000000    -0.513517   
O383     O      0.406940000000     0.066580000000     0.161150000000    -0.513719   
O384     O      0.426610000000     0.107260000000     0.141710000000    -0.51549    


