data_structure

_audit_creation_method RASPA-1.0
_audit_creation_date 2023-6-5
_audit_author_name 'Poobodin Mano'

_cell_length_a    43.625
_cell_length_b    43.3528
_cell_length_c    24.2093
_cell_angle_alpha 89.6988
_cell_angle_beta  90.3012
_cell_angle_gamma 89.9995
_cell_volume      45785

_symmetry_cell_setting          triclinic
_symmetry_space_group_name_Hall 'P 1'
_symmetry_space_group_name_H-M  'P 1'
_symmetry_Int_Tables_number     1

_symmetry_equiv_pos_as_xyz 'x,y,z'

loop_
_atom_site_label
_atom_site_type_symbol
_atom_site_fract_x
_atom_site_fract_y
_atom_site_fract_z
_atom_site_charge
C1       C      0.331990000000     0.394810000000     0.989990000000     0.414543   
C2       C      0.314830000000     0.303760000000     0.910340000000     0.421653   
C3       C      0.403200000000     0.325680000000     0.996090000000     0.415251   
C4       C      0.317490000000     0.309680000000     0.090890000000     0.420569   
C5       C      0.317700000000     0.621140000000     0.982170000000     0.418334   
C6       C      0.292290000000     0.712300000000     0.070310000000     0.418561   
C7       C      0.382900000000     0.689110000000     0.984980000000     0.408092   
C8       C      0.290650000000     0.710810000000     0.900970000000     0.415158   
C9       C      0.627960000000     0.323150000000     0.968940000000     0.417344   
C10      C      0.717790000000     0.303000000000     0.878660000000     0.410275   
C11      C      0.690730000000     0.393040000000     0.962310000000     0.417423   
C12      C      0.720280000000     0.303170000000     0.049920000000     0.416522   
C13      C      0.677240000000     0.619710000000     0.978780000000     0.418817   
C14      C      0.699000000000     0.713630000000     0.899850000000     0.420283   
C15      C      0.608530000000     0.689180000000     0.981360000000     0.414141   
C16      C      0.694210000000     0.707160000000     0.074570000000     0.413977   
C17      C      0.830220000000     0.116610000000     0.470530000000     0.412209   
C18      C      0.812630000000     0.207430000000     0.553010000000     0.417152   
C19      C      0.901920000000     0.185240000000     0.472780000000     0.42333    
C20      C      0.814640000000     0.203670000000     0.375770000000     0.416812   
C21      C      0.886040000000     0.810900000000     0.481530000000     0.418598   
C22      C      0.797260000000     0.806470000000     0.573820000000     0.406866   
C23      C      0.822960000000     0.890100000000     0.473450000000     0.42317    
C24      C      0.795570000000     0.800870000000     0.397370000000     0.415829   
C25      C      0.110040000000     0.816740000000     0.490730000000     0.407825   
C26      C      0.197010000000     0.812380000000     0.390050000000     0.410995   
C27      C      0.172860000000     0.895800000000     0.475980000000     0.42063    
C28      C      0.194830000000     0.807310000000     0.574090000000     0.419338   
C29      C      0.127370000000     0.189630000000     0.488590000000     0.412092   
C30      C      0.216880000000     0.209320000000     0.584780000000     0.413353   
C31      C      0.190850000000     0.121460000000     0.494610000000     0.411006   
C32      C      0.217800000000     0.213110000000     0.412160000000     0.408176   
C33      C      0.149380000000     0.946380000000     0.485010000000     0.152214   
C34      C      0.202840000000     0.940880000000     0.467660000000     0.075495   
C35      C      0.153250000000     0.978520000000     0.488410000000    -0.126228   
C36      C      0.173460000000     0.041470000000     0.530900000000    -0.0847357  
C37      C      0.206930000000     0.972760000000     0.469860000000    -0.0974328  
C38      C      0.185980000000     0.025670000000     0.486070000000     0.0280923  
C39      C      0.182090000000     0.991850000000     0.481280000000     0.0511079  
C40      C      0.176030000000     0.073500000000     0.533810000000     0.0714429  
C41      C      0.203190000000     0.074630000000     0.449170000000     0.0712082  
C42      C      0.201420000000     0.042520000000     0.445350000000    -0.0843103  
C43      C      0.117140000000     0.934140000000     0.492660000000    -0.217419   
C44      C      0.934320000000     0.803560000000     0.433590000000     0.151251   
C45      C      0.931700000000     0.802070000000     0.531770000000     0.0737052  
C46      C      0.966510000000     0.802170000000     0.436940000000    -0.12545    
C47      C      0.034020000000     0.788050000000     0.452390000000    -0.0842967  
C48      C      0.963520000000     0.800000000000     0.535810000000    -0.0969741  
C49      C      0.015520000000     0.802470000000     0.491830000000     0.0277163  
C50      C      0.981440000000     0.800980000000     0.488200000000     0.0497788  
C51      C      0.065770000000     0.792390000000     0.453440000000     0.0701561  
C52      C      0.061640000000     0.823570000000     0.533190000000     0.071102   
C53      C      0.029850000000     0.819950000000     0.533130000000    -0.0849194  
C54      C      0.920220000000     0.804010000000     0.376290000000    -0.217196   
C55      C      0.836270000000     0.938210000000     0.427610000000     0.152157   
C56      C      0.806840000000     0.937660000000     0.510260000000     0.0751273  
C57      C      0.835940000000     0.970650000000     0.428010000000    -0.126174   
C58      C      0.815510000000     0.037990000000     0.423230000000    -0.0846089  
C59      C      0.806410000000     0.969830000000     0.511380000000    -0.0975122  
C60      C      0.821740000000     0.020850000000     0.471170000000     0.0279819  
C61      C      0.821190000000     0.986650000000     0.470130000000     0.0507842  
C62      C      0.817750000000     0.070110000000     0.424110000000     0.0712171  
C63      C      0.832020000000     0.068750000000     0.518780000000     0.0714596  
C64      C      0.829620000000     0.036600000000     0.519540000000    -0.0845285  
C65      C      0.852070000000     0.922870000000     0.379420000000    -0.217074   
C66      C      0.947990000000     0.210170000000     0.508090000000     0.151035   
C67      C      0.950720000000     0.168990000000     0.443530000000     0.0758495  
C68      C      0.980240000000     0.211510000000     0.509430000000    -0.125239   
C69      C      0.047250000000     0.196340000000     0.530520000000    -0.0843862  
C70      C      0.982620000000     0.170050000000     0.444340000000    -0.0973498  
C71      C      0.031890000000     0.192110000000     0.480140000000     0.0281194  
C72      C      0.997810000000     0.191330000000     0.477730000000     0.050542   
C73      C      0.079230000000     0.195930000000     0.532430000000     0.0716504  
C74      C      0.081360000000     0.187650000000     0.435780000000     0.0714791  
C75      C      0.049390000000     0.187990000000     0.432340000000    -0.0844103  
C76      C      0.930910000000     0.233250000000     0.543210000000    -0.216608   
C77      C      0.745150000000     0.732670000000     0.855080000000     0.151392   
C78      C      0.695760000000     0.740290000000     0.814830000000     0.0745178  
C79      C      0.758590000000     0.746650000000     0.808510000000    -0.125367   
C80      C      0.780010000000     0.791090000000     0.719180000000    -0.0842745  
C81      C      0.708700000000     0.754400000000     0.768630000000    -0.0970338  
C82      C      0.754770000000     0.771230000000     0.714690000000     0.0278742  
C83      C      0.740460000000     0.757430000000     0.764710000000     0.0504244  
C84      C      0.793800000000     0.802920000000     0.671600000000     0.0712355  
C85      C      0.758090000000     0.776280000000     0.615170000000     0.0706605  
C86      C      0.743730000000     0.764050000000     0.661830000000    -0.0840805  
C87      C      0.766620000000     0.722400000000     0.900980000000    -0.216807   
C88      C      0.692740000000     0.744530000000     0.148810000000     0.151214   
C89      C      0.733490000000     0.708220000000     0.141710000000     0.0750781  
C90      C      0.707240000000     0.757610000000     0.195160000000    -0.125472   
C91      C      0.749420000000     0.792370000000     0.271850000000    -0.0849203  
C92      C      0.748240000000     0.721010000000     0.187380000000    -0.0973518  
C93      C      0.750970000000     0.760450000000     0.263030000000     0.0278767  
C94      C      0.735310000000     0.746160000000     0.214600000000     0.0499292  
C95      C      0.764150000000     0.805430000000     0.317400000000     0.0709085  
C96      C      0.782580000000     0.756330000000     0.345510000000     0.0718734  
C97      C      0.767740000000     0.742420000000     0.300840000000    -0.0849118  
C98      C      0.661770000000     0.757540000000     0.132310000000    -0.216613   
C99      C      0.797610000000     0.253930000000     0.601950000000     0.151168   
C100     C      0.787500000000     0.203920000000     0.638770000000     0.07464    
C101     C      0.784340000000     0.267180000000     0.649130000000    -0.125507   
C102     C      0.771290000000     0.288980000000     0.765620000000    -0.0847566  
C103     C      0.774280000000     0.216660000000     0.685680000000    -0.0970936  
C104     C      0.758560000000     0.262610000000     0.741290000000     0.0274393  
C105     C      0.772640000000     0.248620000000     0.691480000000     0.0500825  
C106     C      0.757470000000     0.302100000000     0.811830000000     0.0694784  
C107     C      0.718950000000     0.263510000000     0.811080000000     0.0700361  
C108     C      0.732120000000     0.249850000000     0.764800000000    -0.0846737  
C109     C      0.809250000000     0.275920000000     0.557980000000    -0.216587   
C110     C      0.761070000000     0.302110000000     0.118970000000     0.151739   
C111     C      0.723360000000     0.262450000000     0.114650000000     0.0754002  
C112     C      0.774380000000     0.287400000000     0.165220000000    -0.125406   
C113     C      0.807770000000     0.243380000000     0.242580000000    -0.0847857  
C114     C      0.736360000000     0.247530000000     0.160180000000    -0.0970555  
C115     C      0.775880000000     0.244700000000     0.235630000000     0.0279867  
C116     C      0.762060000000     0.260020000000     0.186290000000     0.0504513  
C117     C      0.820340000000     0.229460000000     0.289660000000     0.070752   
C118     C      0.770670000000     0.217730000000     0.323060000000     0.0714003  
C119     C      0.757310000000     0.231540000000     0.276550000000    -0.0847606  
C120     C      0.776120000000     0.331620000000     0.099140000000    -0.217792   
C121     C      0.685800000000     0.442240000000     0.914060000000     0.150627   
C122     C      0.694160000000     0.439770000000     0.011280000000     0.0747209  
C123     C      0.684390000000     0.474640000000     0.917210000000    -0.125153   
C124     C      0.698040000000     0.542840000000     0.929840000000    -0.0847009  
C125     C      0.693080000000     0.471810000000     0.015020000000    -0.0972266  
C126     C      0.685740000000     0.523930000000     0.971330000000     0.0277722  
C127     C      0.687890000000     0.489700000000     0.967810000000     0.0499331  
C128     C      0.695090000000     0.574850000000     0.933120000000     0.0708207  
C129     C      0.668590000000     0.570140000000     0.017990000000     0.07148    
C130     C      0.670970000000     0.538030000000     0.015890000000    -0.0845061  
C131     C      0.681710000000     0.428080000000     0.857430000000    -0.216844   
C132     C      0.247750000000     0.713360000000     0.836570000000     0.150344   
C133     C      0.288740000000     0.749610000000     0.832460000000     0.0749401  
C134     C      0.234270000000     0.727460000000     0.789940000000    -0.125456   
C135     C      0.220840000000     0.748870000000     0.673130000000    -0.0847847  
C136     C      0.275620000000     0.763900000000     0.786370000000    -0.0969055  
C137     C      0.234260000000     0.767140000000     0.714280000000     0.0282903  
C138     C      0.248240000000     0.752700000000     0.764220000000     0.0503039  
C139     C      0.207690000000     0.762720000000     0.626550000000     0.0719949  
C140     C      0.220870000000     0.812320000000     0.660000000000     0.071812   
C141     C      0.234170000000     0.799250000000     0.707210000000    -0.0846861  
C142     C      0.230500000000     0.686630000000     0.862360000000    -0.21512    
C143     C      0.247690000000     0.720450000000     0.128300000000     0.151268   
C144     C      0.293640000000     0.749290000000     0.141350000000     0.0753482  
C145     C      0.234460000000     0.735880000000     0.173300000000    -0.125579   
C146     C      0.207340000000     0.785100000000     0.248600000000    -0.0845451  
C147     C      0.280910000000     0.764680000000     0.186130000000    -0.0973178  
C148     C      0.237340000000     0.773630000000     0.250970000000     0.0279421  
C149     C      0.251060000000     0.758000000000     0.202650000000     0.0507007  
C150     C      0.194400000000     0.798650000000     0.295230000000     0.0709133  
C151     C      0.240120000000     0.789850000000     0.346390000000     0.0713578  
C152     C      0.253880000000     0.776490000000     0.300390000000    -0.0843173  
C153     C      0.227690000000     0.697380000000     0.098170000000    -0.216343   
C154     C      0.561440000000     0.707210000000     0.023820000000     0.151308   
C155     C      0.560620000000     0.679070000000     0.939560000000     0.0753015  
C156     C      0.529180000000     0.707530000000     0.023760000000    -0.125237   
C157     C      0.462740000000     0.687360000000     0.031780000000    -0.0841133  
C158     C      0.528670000000     0.679440000000     0.938640000000    -0.0970118  
C159     C      0.478450000000     0.692910000000     0.982360000000     0.0276371  
C160     C      0.512540000000     0.693400000000     0.981400000000     0.0504337  
C161     C      0.430750000000     0.686430000000     0.031970000000     0.0708009  
C162     C      0.429300000000     0.696650000000     0.935670000000     0.0704715  
C163     C      0.461300000000     0.697680000000     0.933960000000    -0.0841884  
C164     C      0.577430000000     0.723970000000     0.070590000000    -0.215889   
C165     C      0.296570000000     0.257420000000     0.864210000000     0.152813   
C166     C      0.292150000000     0.306970000000     0.821960000000     0.0755907  
C167     C      0.282760000000     0.244110000000     0.817310000000    -0.125463   
C168     C      0.268890000000     0.220100000000     0.702200000000    -0.0840257  
C169     C      0.278520000000     0.294170000000     0.775260000000    -0.0972243  
C170     C      0.258830000000     0.248460000000     0.722950000000     0.0279263  
C171     C      0.273630000000     0.262410000000     0.772410000000     0.0508891  
C172     C      0.254600000000     0.207310000000     0.655890000000     0.0707853  
C173     C      0.220760000000     0.250010000000     0.649700000000     0.0711839  
C174     C      0.234430000000     0.263390000000     0.696020000000    -0.0841673  
C175     C      0.305200000000     0.235800000000     0.911120000000    -0.218091   
C176     C      0.322530000000     0.287570000000     0.183120000000     0.151561   
C177     C      0.273640000000     0.294500000000     0.140550000000     0.0760722  
C178     C      0.308160000000     0.274200000000     0.229350000000    -0.125633   
C179     C      0.274170000000     0.230120000000     0.304970000000    -0.0840828  
C180     C      0.259070000000     0.281400000000     0.186040000000    -0.097684   
C181     C      0.261160000000     0.256070000000     0.279280000000     0.0278452  
C182     C      0.276310000000     0.270850000000     0.231010000000     0.0509102  
C183     C      0.259460000000     0.216190000000     0.349680000000     0.0709996  
C184     C      0.219310000000     0.252980000000     0.344510000000     0.0711498  
C185     C      0.233430000000     0.267530000000     0.299760000000    -0.084083   
C186     C      0.357100000000     0.290710000000     0.185560000000    -0.21736    
C187     C      0.578060000000     0.317600000000     0.924640000000     0.151563   
C188     C      0.583010000000     0.321200000000     0.022440000000     0.075324   
C189     C      0.545960000000     0.316890000000     0.930100000000    -0.125546   
C190     C      0.479680000000     0.300510000000     0.954540000000    -0.0847177  
C191     C      0.551290000000     0.320300000000     0.028560000000    -0.0972744  
C192     C      0.498410000000     0.319170000000     0.987670000000     0.0277815  
C193     C      0.532330000000     0.318500000000     0.982130000000     0.0503704  
C194     C      0.447820000000     0.302620000000     0.958490000000     0.0703865  
C195     C      0.452490000000     0.340700000000     0.027990000000     0.0717085  
C196     C      0.484400000000     0.339200000000     0.025110000000    -0.0848529  
C197     C      0.590700000000     0.315400000000     0.866630000000    -0.217388   
C198     C      0.315100000000     0.572930000000     0.931480000000     0.15132    
C199     C      0.317850000000     0.573560000000     0.029780000000     0.0750282  
C200     C      0.316420000000     0.540500000000     0.932710000000    -0.125797   
C201     C      0.340020000000     0.475140000000     0.945850000000    -0.0847005  
C202     C      0.318910000000     0.541450000000     0.031730000000    -0.0971692  
C203     C      0.321390000000     0.490360000000     0.984010000000     0.0278715  
C204     C      0.318670000000     0.524530000000     0.982870000000     0.0503346  
C205     C      0.343030000000     0.443120000000     0.948140000000     0.0721444  
C206     C      0.309400000000     0.440640000000     0.024680000000     0.0709683  
C207     C      0.305880000000     0.472670000000     0.023610000000    -0.0842676  
C208     C      0.311650000000     0.588140000000     0.875320000000    -0.216761   
H1       H      0.165810000000     0.084940000000     0.568930000000     0.0296039  
H2       H      0.223030000000     0.927030000000     0.459680000000     0.028856   
H3       H      0.211330000000     0.031060000000     0.410020000000     0.0515227  
H4       H      0.229620000000     0.982340000000     0.463960000000     0.0551728  
H5       H      0.161670000000     0.029140000000     0.563520000000     0.0513757  
H6       H      0.133700000000     0.993290000000     0.496220000000     0.060457   
H7       H      0.214780000000     0.087030000000     0.416340000000     0.0307651  
H8       H      0.115950000000     0.919720000000     0.530640000000     0.0930117  
H9       H      0.100060000000     0.952950000000     0.497360000000     0.0714307  
H10      H      0.109980000000     0.920690000000     0.455890000000     0.0908814  
H11      H      0.079230000000     0.781410000000     0.421550000000     0.0296342  
H12      H      0.919040000000     0.802140000000     0.570210000000     0.0287364  
H13      H      0.016580000000     0.831810000000     0.564150000000     0.0500194  
H14      H      0.974010000000     0.798220000000     0.576350000000     0.053215   
H15      H      0.024070000000     0.773780000000     0.420400000000     0.04933    
H16      H      0.979910000000     0.802940000000     0.399400000000     0.0590815  
H17      H      0.071710000000     0.837890000000     0.565100000000     0.0286583  
H18      H      0.910850000000     0.827270000000     0.366870000000     0.0891359  
H19      H      0.937280000000     0.798530000000     0.343850000000     0.0702405  
H20      H      0.902000000000     0.786230000000     0.373080000000     0.0902031  
H21      H      0.812990000000     0.082560000000     0.386060000000     0.0295286  
H22      H      0.795230000000     0.925710000000     0.543600000000     0.028175   
H23      H      0.834750000000     0.024130000000     0.557360000000     0.0511902  
H24      H      0.794460000000     0.981460000000     0.544410000000     0.0546908  
H25      H      0.809020000000     0.026620000000     0.385170000000     0.0507383  
H26      H      0.847560000000     0.983510000000     0.395780000000     0.0601364  
H27      H      0.838740000000     0.080130000000     0.556740000000     0.0299265  
H28      H      0.836370000000     0.906120000000     0.359350000000     0.089337   
H29      H      0.858780000000     0.939740000000     0.346960000000     0.0705226  
H30      H      0.873340000000     0.911200000000     0.393810000000     0.0894572  
H31      H      0.090240000000     0.198900000000     0.572310000000     0.0304358  
H32      H      0.940240000000     0.151740000000     0.417200000000     0.0286911  
H33      H      0.038500000000     0.185130000000     0.392390000000     0.0509547  
H34      H      0.995290000000     0.153720000000     0.419600000000     0.0541019  
H35      H      0.034680000000     0.199240000000     0.568600000000     0.0503786  
H36      H      0.991680000000     0.228580000000     0.534790000000     0.0594611  
H37      H      0.094090000000     0.184180000000     0.397960000000     0.0297242  
H38      H      0.917770000000     0.221050000000     0.575830000000     0.089084   
H39      H      0.946650000000     0.249530000000     0.564490000000     0.0702541  
H40      H      0.915400000000     0.247450000000     0.516930000000     0.0888328  
H41      H      0.813350000000     0.818100000000     0.676770000000     0.0303181  
H42      H      0.670980000000     0.738250000000     0.815270000000     0.0287353  
H43      H      0.724520000000     0.748530000000     0.656370000000     0.0510738  
H44      H      0.693760000000     0.762910000000     0.736080000000     0.0541392  
H45      H      0.789020000000     0.797610000000     0.759220000000     0.0498597  
H46      H      0.783310000000     0.748660000000     0.806020000000     0.0596165  
H47      H      0.749050000000     0.769910000000     0.575010000000     0.0300786  
H48      H      0.766800000000     0.696840000000     0.904060000000     0.0914692  
H49      H      0.790630000000     0.729880000000     0.893620000000     0.0705888  
H50      H      0.759600000000     0.732800000000     0.940770000000     0.0879423  
H51      H      0.762450000000     0.830200000000     0.322590000000     0.0273518  
H52      H      0.744840000000     0.689060000000     0.121700000000     0.0271394  
H53      H      0.769190000000     0.717630000000     0.296480000000     0.0502336  
H54      H      0.770080000000     0.711500000000     0.200360000000     0.0528427  
H55      H      0.737300000000     0.807410000000     0.243350000000     0.0491355  
H56      H      0.696240000000     0.776420000000     0.216710000000     0.0590239  
H57      H      0.795350000000     0.741600000000     0.373710000000     0.0287443  
H58      H      0.644630000000     0.738700000000     0.128900000000     0.0893686  
H59      H      0.652790000000     0.773950000000     0.163400000000     0.0693645  
H60      H      0.663620000000     0.770290000000     0.092580000000     0.0891671  
H61      H      0.767960000000     0.322530000000     0.829360000000     0.0271034  
H62      H      0.788320000000     0.178940000000     0.636840000000     0.0300186  
H63      H      0.721270000000     0.229710000000     0.747040000000     0.050345   
H64      H      0.765810000000     0.201390000000     0.717690000000     0.0539537  
H65      H      0.791990000000     0.299350000000     0.749420000000     0.0490171  
H66      H      0.782680000000     0.292040000000     0.652430000000     0.0588761  
H67      H      0.698370000000     0.253070000000     0.827760000000     0.0285867  
H68      H      0.797580000000     0.271330000000     0.517990000000     0.0889026  
H69      H      0.804580000000     0.300420000000     0.568250000000     0.0698681  
H70      H      0.834470000000     0.273580000000     0.553790000000     0.0894453  
H71      H      0.845110000000     0.228950000000     0.293520000000     0.0284182  
H72      H      0.703350000000     0.251680000000     0.096240000000     0.029595   
H73      H      0.732560000000     0.232350000000     0.273260000000     0.0508444  
H74      H      0.726330000000     0.226100000000     0.174540000000     0.0543839  
H75      H      0.823020000000     0.252800000000     0.211640000000     0.0498773  
H76      H      0.794120000000     0.297630000000     0.185410000000     0.0591783  
H77      H      0.755530000000     0.208000000000     0.353970000000     0.0285708  
H78      H      0.760010000000     0.351290000000     0.103320000000     0.0929777  
H79      H      0.796940000000     0.337430000000     0.123590000000     0.0709928  
H80      H      0.783560000000     0.329120000000     0.055610000000     0.0900697  
H81      H      0.704830000000     0.588660000000     0.900100000000     0.0279363  
H82      H      0.698120000000     0.427130000000     0.049450000000     0.0280781  
H83      H      0.660760000000     0.524380000000     0.048550000000     0.0504264  
H84      H      0.696470000000     0.482460000000     0.054950000000     0.0534807  
H85      H      0.710100000000     0.533030000000     0.895120000000     0.049572   
H86      H      0.679950000000     0.488110000000     0.880190000000     0.0591504  
H87      H      0.656800000000     0.580140000000     0.052920000000     0.0281118  
H88      H      0.660780000000     0.413510000000     0.856570000000     0.0877427  
H89      H      0.678920000000     0.445820000000     0.824490000000     0.0702958  
H90      H      0.702250000000     0.414310000000     0.846590000000     0.0911683  
H91      H      0.197600000000     0.747780000000     0.595610000000     0.028757   
H92      H      0.310260000000     0.759040000000     0.847360000000     0.030115   
H93      H      0.243950000000     0.814260000000     0.738270000000     0.050896   
H94      H      0.287350000000     0.783270000000     0.767540000000     0.0545602  
H95      H      0.220810000000     0.723940000000     0.676440000000     0.0501706  
H96      H      0.212590000000     0.718970000000     0.774090000000     0.059057   
H97      H      0.221170000000     0.837250000000     0.656060000000     0.0290948  
H98      H      0.226120000000     0.691270000000     0.906690000000     0.0858863  
H99      H      0.207750000000     0.682950000000     0.842630000000     0.069181   
H100     H      0.243710000000     0.664940000000     0.857420000000     0.0889765  
H101     H      0.171050000000     0.807080000000     0.291960000000     0.0295389  
H102     H      0.316990000000     0.755310000000     0.130490000000     0.029204   
H103     H      0.277070000000     0.767730000000     0.303970000000     0.0515926  
H104     H      0.294410000000     0.781910000000     0.207550000000     0.0546461  
H105     H      0.193940000000     0.783640000000     0.210900000000     0.0501004  
H106     H      0.211290000000     0.730370000000     0.185970000000     0.0599996  
H107     H      0.253490000000     0.791190000000     0.384190000000     0.03005    
H108     H      0.236930000000     0.673720000000     0.104040000000     0.0916239  
H109     H      0.203780000000     0.697240000000     0.113770000000     0.0700669  
H110     H      0.226320000000     0.703360000000     0.053570000000     0.085406   
H111     H      0.419480000000     0.681810000000     0.070960000000     0.0296348  
H112     H      0.571920000000     0.667370000000     0.905800000000     0.0288084  
H113     H      0.472490000000     0.702420000000     0.895000000000     0.0508642  
H114     H      0.516690000000     0.668090000000     0.905120000000     0.0540457  
H115     H      0.475070000000     0.683170000000     0.070040000000     0.0503084  
H116     H      0.516980000000     0.719170000000     0.056520000000     0.05961    
H117     H      0.416830000000     0.700390000000     0.897350000000     0.0298994  
H118     H      0.593770000000     0.741230000000     0.053820000000     0.0891571  
H119     H      0.561070000000     0.736890000000     0.096840000000     0.0693331  
H120     H      0.589470000000     0.707180000000     0.097850000000     0.0882443  
H121     H      0.263060000000     0.185360000000     0.641060000000     0.0292342  
H122     H      0.295470000000     0.331770000000     0.821580000000     0.0292617  
H123     H      0.225580000000     0.285110000000     0.711010000000     0.0509105  
H124     H      0.272210000000     0.309210000000     0.741190000000     0.054142   
H125     H      0.287950000000     0.207950000000     0.721150000000     0.050335   
H126     H      0.278620000000     0.219470000000     0.816240000000     0.0599906  
H127     H      0.201890000000     0.262250000000     0.630180000000     0.0301451  
H128     H      0.293200000000     0.242640000000     0.949480000000     0.0895587  
H129     H      0.298520000000     0.211550000000     0.902590000000     0.0715724  
H130     H      0.330420000000     0.235950000000     0.917510000000     0.0919413  
H131     H      0.270160000000     0.196030000000     0.368160000000     0.0307743  
H132     H      0.259060000000     0.301930000000     0.106580000000     0.0285138  
H133     H      0.222770000000     0.287780000000     0.281660000000     0.0510427  
H134     H      0.234360000000     0.279000000000     0.185300000000     0.0544225  
H135     H      0.295350000000     0.220210000000     0.290080000000     0.050323   
H136     H      0.321830000000     0.266730000000     0.264470000000     0.0596691  
H137     H      0.197850000000     0.262490000000     0.359110000000     0.0301654  
H138     H      0.363800000000     0.315230000000     0.179930000000     0.091305   
H139     H      0.366690000000     0.283190000000     0.226050000000     0.0713992  
H140     H      0.367800000000     0.276060000000     0.153520000000     0.0901259  
H141     H      0.434090000000     0.288010000000     0.931840000000     0.0278647  
H142     H      0.596550000000     0.322950000000     0.060000000000     0.0291077  
H143     H      0.497960000000     0.354270000000     0.051100000000     0.0506145  
H144     H      0.541710000000     0.321060000000     0.069720000000     0.0538462  
H145     H      0.489540000000     0.284340000000     0.925670000000     0.0498459  
H146     H      0.531550000000     0.315730000000     0.893550000000     0.0595689  
H147     H      0.442540000000     0.356820000000     0.056930000000     0.0286619  
H148     H      0.606820000000     0.295670000000     0.863740000000     0.0928772  
H149     H      0.572400000000     0.311320000000     0.835400000000     0.070875   
H150     H      0.602250000000     0.337310000000     0.855110000000     0.0889017  
H151     H      0.357900000000     0.432260000000     0.918200000000     0.0296817  
H152     H      0.318770000000     0.585510000000     0.069010000000     0.0284484  
H153     H      0.290940000000     0.483460000000     0.053440000000     0.0504709  
H154     H      0.320780000000     0.530010000000     0.071500000000     0.0540589  
H155     H      0.352760000000     0.487920000000     0.915000000000     0.0505118  
H156     H      0.315370000000     0.527640000000     0.894460000000     0.059593   
H157     H      0.297120000000     0.427730000000     0.056030000000     0.0290722  
H158     H      0.332890000000     0.600910000000     0.864720000000     0.090131   
H159     H      0.307600000000     0.571060000000     0.842000000000     0.0704912  
H160     H      0.291550000000     0.603870000000     0.875000000000     0.0892331  
In1      In     0.341660000000     0.333260000000     0.996680000000     2.41297    
In2      In     0.321170000000     0.683570000000     0.985830000000     2.41936    
In3      In     0.689680000000     0.330390000000     0.964850000000     2.41583    
In4      In     0.670290000000     0.681840000000     0.981900000000     2.40542    
In5      In     0.839980000000     0.178210000000     0.467520000000     2.40846    
In6      In     0.825800000000     0.827510000000     0.482130000000     2.39855    
In7      In     0.169590000000     0.833180000000     0.482630000000     2.40776    
In8      In     0.188920000000     0.183820000000     0.495860000000     2.41287    
N1       N      0.174590000000     0.927520000000     0.475850000000    -0.210426   
N2       N      0.190290000000     0.089940000000     0.492760000000    -0.194033   
N3       N      0.917090000000     0.805090000000     0.481560000000    -0.210417   
N4       N      0.079310000000     0.810550000000     0.492850000000    -0.193295   
N5       N      0.822100000000     0.921790000000     0.469750000000    -0.211033   
N6       N      0.826450000000     0.085270000000     0.471270000000    -0.193843   
N7       N      0.933310000000     0.188480000000     0.475240000000    -0.210757   
N8       N      0.096090000000     0.191280000000     0.485520000000    -0.19384    
N9       N      0.713560000000     0.728870000000     0.857330000000    -0.210325   
N10      N      0.783040000000     0.795350000000     0.620090000000    -0.192852   
N11      N      0.706430000000     0.720100000000     0.121530000000    -0.209194   
N12      N      0.780730000000     0.787560000000     0.353660000000    -0.194589   
N13      N      0.799330000000     0.222060000000     0.597240000000    -0.209092   
N14      N      0.731450000000     0.289510000000     0.834120000000    -0.194846   
N15      N      0.735180000000     0.289580000000     0.094100000000    -0.209223   
N16      N      0.801910000000     0.216860000000     0.329590000000    -0.195311   
N17      N      0.690330000000     0.424820000000     0.961730000000    -0.209981   
N18      N      0.680370000000     0.588330000000     0.976730000000    -0.19607    
N19      N      0.275450000000     0.724310000000     0.857120000000    -0.209208   
N20      N      0.207740000000     0.794170000000     0.620120000000    -0.19574    
N21      N      0.277620000000     0.727050000000     0.112930000000    -0.209964   
N22      N      0.210530000000     0.800560000000     0.343890000000    -0.193888   
N23      N      0.577090000000     0.692160000000     0.982010000000    -0.20862    
N24      N      0.414220000000     0.690890000000     0.984240000000    -0.193702   
N25      N      0.301300000000     0.289070000000     0.866150000000    -0.209963   
N26      N      0.230740000000     0.222180000000     0.629960000000    -0.19483    
N27      N      0.305010000000     0.297350000000     0.138270000000    -0.210016   
N28      N      0.232190000000     0.227460000000     0.369030000000    -0.193465   
N29      N      0.596530000000     0.320450000000     0.971250000000    -0.209712   
N30      N      0.434410000000     0.322830000000     0.994460000000    -0.195288   
N31      N      0.316700000000     0.589420000000     0.980440000000    -0.210244   
N32      N      0.328000000000     0.426080000000     0.987460000000    -0.194674   
O1       O      0.301250000000     0.319640000000     0.051240000000    -0.504252   
O2       O      0.345900000000     0.311700000000     0.082430000000    -0.516388   
O3       O      0.317580000000     0.332730000000     0.912700000000    -0.507658   
O4       O      0.319190000000     0.377970000000     0.025830000000    -0.50296    
O5       O      0.389820000000     0.344360000000     0.027710000000    -0.503951   
O6       O      0.349280000000     0.380480000000     0.957270000000    -0.501839   
O7       O      0.325830000000     0.289840000000     0.951770000000    -0.512139   
O8       O      0.385450000000     0.310470000000     0.965130000000    -0.50641    
O9       O      0.282090000000     0.686090000000     0.923700000000    -0.515888   
O10      O      0.315050000000     0.721830000000     0.921320000000    -0.500535   
O11      O      0.281460000000     0.689190000000     0.045680000000    -0.517029   
O12      O      0.317480000000     0.636070000000     0.026880000000    -0.505443   
O13      O      0.366580000000     0.692610000000     0.942130000000    -0.499268   
O14      O      0.319860000000     0.637980000000     0.939810000000    -0.516298   
O15      O      0.318250000000     0.720600000000     0.052710000000    -0.506497   
O16      O      0.367970000000     0.683250000000     0.028380000000    -0.503425   
O17      O      0.696330000000     0.291860000000     0.028470000000    -0.504594   
O18      O      0.728710000000     0.328100000000     0.027700000000    -0.511831   
O19      O      0.693840000000     0.292300000000     0.900680000000    -0.505103   
O20      O      0.644540000000     0.325710000000     0.011650000000    -0.503947   
O21      O      0.693470000000     0.377480000000     0.006330000000    -0.504826   
O22      O      0.642830000000     0.324150000000     0.924510000000    -0.512363   
O23      O      0.727770000000     0.327430000000     0.900550000000    -0.507436   
O24      O      0.687870000000     0.376710000000     0.919680000000    -0.514684   
O25      O      0.703610000000     0.681850000000     0.055140000000    -0.501837   
O26      O      0.673230000000     0.719680000000     0.046290000000    -0.505302   
O27      O      0.712960000000     0.700020000000     0.938510000000    -0.517137   
O28      O      0.686650000000     0.637410000000     0.940960000000    -0.510878   
O29      O      0.625680000000     0.697860000000     0.020290000000    -0.505125   
O30      O      0.664430000000     0.633380000000     0.018360000000    -0.508186   
O31      O      0.670200000000     0.711150000000     0.902660000000    -0.505182   
O32      O      0.622790000000     0.676570000000     0.942090000000    -0.499342   
O33      O      0.798800000000     0.191480000000     0.413590000000    -0.504549   
O34      O      0.843220000000     0.202870000000     0.384250000000    -0.50936    
O35      O      0.813310000000     0.178400000000     0.548500000000    -0.498908   
O36      O      0.840270000000     0.131470000000     0.511570000000    -0.49636    
O37      O      0.883560000000     0.200530000000     0.501760000000    -0.515443   
O38      O      0.824760000000     0.132930000000     0.428230000000    -0.503573   
O39      O      0.825680000000     0.221450000000     0.513910000000    -0.511677   
O40      O      0.888830000000     0.166210000000     0.441230000000    -0.507753   
O41      O      0.812960000000     0.785850000000     0.429700000000    -0.498325   
O42      O      0.793150000000     0.829240000000     0.408440000000    -0.508344   
O43      O      0.820570000000     0.823770000000     0.575860000000    -0.4881     
O44      O      0.870650000000     0.813220000000     0.525300000000    -0.501334   
O45      O      0.807230000000     0.874940000000     0.507790000000    -0.504381   
O46      O      0.870700000000     0.816470000000     0.438510000000    -0.51259    
O47      O      0.788350000000     0.799950000000     0.525540000000    -0.500072   
O48      O      0.840040000000     0.873540000000     0.444270000000    -0.5175     
O49      O      0.182150000000     0.791670000000     0.536550000000    -0.509138   
O50      O      0.194700000000     0.836050000000     0.565530000000    -0.508061   
O51      O      0.170040000000     0.823040000000     0.390000000000    -0.497009   
O52      O      0.127030000000     0.807430000000     0.452070000000    -0.491036   
O53      O      0.196120000000     0.878640000000     0.471760000000    -0.502696   
O54      O      0.123380000000     0.833650000000     0.525750000000    -0.499726   
O55      O      0.210190000000     0.812690000000     0.436610000000    -0.505321   
O56      O      0.148290000000     0.881090000000     0.482250000000    -0.514386   
O57      O      0.192330000000     0.222040000000     0.430830000000    -0.500007   
O58      O      0.228720000000     0.189550000000     0.436050000000    -0.498793   
O59      O      0.195190000000     0.222300000000     0.558970000000    -0.504215   
O60      O      0.141960000000     0.192450000000     0.533500000000    -0.49894    
O61      O      0.201370000000     0.137870000000     0.455860000000    -0.495311   
O62      O      0.143960000000     0.184330000000     0.447060000000    -0.501546   
O63      O      0.224570000000     0.183450000000     0.565620000000    -0.506825   
O64      O      0.179910000000     0.136560000000     0.534380000000    -0.504683   


