data_structure

_audit_creation_method RASPA-1.0
_audit_creation_date 2023-5-23
_audit_author_name 'Poobodin Mano'

_cell_length_a    29.0632
_cell_length_b    58.2994
_cell_length_c    43.7544
_cell_angle_alpha 90.0296
_cell_angle_beta  89.9963
_cell_angle_gamma 120.036
_cell_volume      64180.4

_symmetry_cell_setting          triclinic
_symmetry_space_group_name_Hall 'P 1'
_symmetry_space_group_name_H-M  'P 1'
_symmetry_Int_Tables_number     1

_symmetry_equiv_pos_as_xyz 'x,y,z'

loop_
_atom_site_label
_atom_site_type_symbol
_atom_site_fract_x
_atom_site_fract_y
_atom_site_fract_z
_atom_site_charge
C1       C      0.702720000000     0.208950000000     0.432420000000     0.403377   
C2       C      0.692270000000     0.209110000000     0.548620000000     0.403912   
C3       C      0.817440000000     0.241800000000     0.494380000000     0.403866   
C4       C      0.641740000000     0.241030000000     0.486180000000     0.404128   
C5       C      0.625780000000     0.176330000000     0.099200000000     0.403516   
C6       C      0.626290000000     0.171340000000     0.215460000000     0.403482   
C7       C      0.562800000000     0.202030000000     0.161540000000     0.403812   
C8       C      0.561190000000     0.114190000000     0.153700000000     0.403643   
C9       C      0.322640000000     0.328850000000     0.548980000000     0.404958   
C10      C      0.312750000000     0.330770000000     0.433470000000     0.40534    
C11      C      0.370550000000     0.295150000000     0.485770000000     0.404678   
C12      C      0.197700000000     0.296350000000     0.495660000000     0.404378   
C13      C      0.390640000000     0.362810000000     0.099340000000     0.404888   
C14      C      0.387710000000     0.367840000000     0.214970000000     0.404774   
C15      C      0.457600000000     0.338560000000     0.162170000000     0.404477   
C16      C      0.455140000000     0.424980000000     0.152740000000     0.404359   
C17      C      0.313050000000     0.362710000000     0.882380000000     0.404141   
C18      C      0.320930000000     0.366660000000     0.766070000000     0.403951   
C19      C      0.196820000000     0.337140000000     0.821150000000     0.4039     
C20      C      0.371500000000     0.424490000000     0.827280000000     0.404429   
C21      C      0.701430000000     0.175980000000     0.882060000000     0.404426   
C22      C      0.692810000000     0.171560000000     0.765760000000     0.403758   
C23      C      0.817180000000     0.201320000000     0.820720000000     0.404675   
C24      C      0.642510000000     0.113980000000     0.827210000000     0.40418    
C25      C      0.499870000000     0.985610000000     0.822590000000    -0.0859677  
C26      C      0.486400000000     0.004860000000     0.830310000000     0.0357692  
C27      C      0.432960000000     0.996280000000     0.837290000000    -0.0851808  
C28      C      0.394760000000     0.469350000000     0.835880000000     0.0739961  
C29      C      0.460980000000     0.458870000000     0.822160000000     0.0745663  
C30      C      0.527590000000     0.033620000000     0.830320000000     0.0360557  
C31      C      0.581080000000     0.042190000000     0.837180000000    -0.0854573  
C32      C      0.619270000000     0.069120000000     0.835760000000     0.073997   
C33      C      0.552970000000     0.079610000000     0.822290000000     0.0746091  
C34      C      0.514070000000     0.052870000000     0.822730000000    -0.0862031  
C35      C      0.939340000000     0.265510000000     0.825370000000    -0.0861542  
C36      C      0.978200000000     0.258910000000     0.817850000000     0.0359777  
C37      C      0.961300000000     0.232280000000     0.810980000000    -0.0853864  
C38      C      0.907330000000     0.213140000000     0.812310000000     0.0739721  
C39      C      0.885780000000     0.246030000000     0.825720000000     0.0745991  
C40      C      0.035820000000     0.279560000000     0.817950000000     0.0360026  
C41      C      0.052780000000     0.306180000000     0.811000000000    -0.0854241  
C42      C      0.106740000000     0.325320000000     0.812480000000     0.0739819  
C43      C      0.128150000000     0.292460000000     0.826210000000     0.0746147  
C44      C      0.074590000000     0.272970000000     0.825710000000    -0.0861702  
C45      C      0.309260000000     0.345500000000     0.030050000000    -0.0861312  
C46      C      0.348060000000     0.352510000000     0.007280000000     0.0362895  
C47      C      0.400570000000     0.361510000000     0.016220000000    -0.0864773  
C48      C      0.413690000000     0.364290000000     0.047160000000     0.0746875  
C49      C      0.323780000000     0.348380000000     0.060900000000     0.0739724  
C50      C      0.335070000000     0.352620000000     0.974480000000     0.0358542  
C51      C      0.358030000000     0.344570000000     0.951720000000    -0.0859566  
C52      C      0.349350000000     0.347460000000     0.920850000000     0.0737293  
C53      C      0.295050000000     0.365520000000     0.934600000000     0.0747458  
C54      C      0.302560000000     0.362760000000     0.965530000000    -0.0867058  
C55      C      0.321280000000     0.372130000000     0.682930000000    -0.0867312  
C56      C      0.342150000000     0.356160000000     0.673950000000     0.0361361  
C57      C      0.358430000000     0.344760000000     0.696680000000    -0.0860823  
C58      C      0.352260000000     0.348920000000     0.727560000000     0.0737593  
C59      C      0.315390000000     0.375710000000     0.713860000000     0.0747103  
C60      C      0.342710000000     0.349830000000     0.641120000000     0.0360634  
C61      C      0.325210000000     0.323730000000     0.632070000000    -0.0866309  
C62      C      0.319870000000     0.317280000000     0.601100000000     0.0747028  
C63      C      0.351000000000     0.362070000000     0.587550000000     0.0738292  
C64      C      0.356540000000     0.369210000000     0.618430000000    -0.0860551  
C65      C      0.388540000000     0.380960000000     0.296590000000    -0.0858174  
C66      C      0.345660000000     0.357060000000     0.307380000000     0.0360583  
C67      C      0.314650000000     0.337730000000     0.285340000000    -0.08478    
C68      C      0.327370000000     0.342270000000     0.254280000000     0.074178   
C69      C      0.401690000000     0.384180000000     0.265630000000     0.0757763  
C70      C      0.335100000000     0.351880000000     0.341140000000     0.0361012  
C71      C      0.374080000000     0.367070000000     0.363200000000    -0.0848262  
C72      C      0.364750000000     0.360740000000     0.394250000000     0.074241   
C73      C      0.279970000000     0.324250000000     0.382860000000     0.0758378  
C74      C      0.286690000000     0.330840000000     0.351910000000    -0.085832   
C75      C      0.536880000000     0.996920000000     0.143300000000    -0.0850393  
C76      C      0.499880000000     0.005190000000     0.149460000000     0.0357958  
C77      C      0.447460000000     0.985640000000     0.156120000000    -0.0858729  
C78      C      0.433220000000     0.458960000000     0.156490000000     0.0747845  
C79      C      0.521510000000     0.470030000000     0.144680000000     0.0740948  
C80      C      0.515960000000     0.033930000000     0.149770000000     0.0359152  
C81      C      0.567790000000     0.053280000000     0.157920000000    -0.0860204  
C82      C      0.582160000000     0.079970000000     0.158630000000     0.0744542  
C83      C      0.495000000000     0.069280000000     0.144450000000     0.0737374  
C84      C      0.479570000000     0.042400000000     0.142690000000    -0.0852121  
C85      C      0.451320000000     0.274470000000     0.158160000000    -0.0861986  
C86      C      0.503340000000     0.281070000000     0.165850000000     0.0358186  
C87      C      0.539910000000     0.307760000000     0.172610000000    -0.0850304  
C88      C      0.524320000000     0.326920000000     0.171070000000     0.0730954  
C89      C      0.436880000000     0.293940000000     0.157580000000     0.0746358  
C90      C      0.519290000000     0.260320000000     0.165930000000     0.0358529  
C91      C      0.482410000000     0.233690000000     0.172680000000    -0.0853259  
C92      C      0.497340000000     0.214350000000     0.170870000000     0.073808   
C93      C      0.585070000000     0.246990000000     0.157440000000     0.0742506  
C94      C      0.571220000000     0.266710000000     0.158280000000    -0.0858866  
C95      C      0.706540000000     0.194170000000     0.029630000000    -0.0861474  
C96      C      0.667330000000     0.186530000000     0.007000000000     0.0362793  
C97      C      0.614680000000     0.176900000000     0.016100000000    -0.0865307  
C98      C      0.601880000000     0.174130000000     0.047080000000     0.0747034  
C99      C      0.692330000000     0.191310000000     0.060540000000     0.0737662  
C100     C      0.680120000000     0.186410000000     0.974180000000     0.0358645  
C101     C      0.656360000000     0.194030000000     0.951470000000    -0.0860666  
C102     C      0.664860000000     0.191070000000     0.920590000000     0.0737687  
C103     C      0.720450000000     0.173730000000     0.934240000000     0.0746598  
C104     C      0.713210000000     0.176620000000     0.965180000000    -0.0866916  
C105     C      0.656130000000     0.193680000000     0.696290000000    -0.0860394  
C106     C      0.671720000000     0.181930000000     0.673610000000     0.0360904  
C107     C      0.691690000000     0.165590000000     0.682650000000    -0.0867627  
C108     C      0.697520000000     0.162050000000     0.713600000000     0.0747527  
C109     C      0.662140000000     0.189530000000     0.727180000000     0.0736714  
C110     C      0.671510000000     0.188290000000     0.640780000000     0.0360693  
C111     C      0.690510000000     0.214520000000     0.631710000000    -0.0867179  
C112     C      0.696140000000     0.220920000000     0.600740000000     0.0747424  
C113     C      0.662370000000     0.175890000000     0.587230000000     0.0737912  
C114     C      0.656570000000     0.168780000000     0.618120000000    -0.0861694  
C115     C      0.053530000000     0.255030000000     0.505030000000    -0.0852578  
C116     C      0.036480000000     0.273300000000     0.498950000000     0.0360376  
C117     C      0.075350000000     0.299530000000     0.492400000000    -0.0861403  
C118     C      0.128990000000     0.306880000000     0.492050000000     0.0749386  
C119     C      0.107580000000     0.262940000000     0.503660000000     0.0740961  
C120     C      0.978710000000     0.265010000000     0.498590000000     0.0358852  
C121     C      0.940300000000     0.239140000000     0.490270000000    -0.0860554  
C122     C      0.886650000000     0.231740000000     0.489490000000     0.0745313  
C123     C      0.907200000000     0.275020000000     0.503920000000     0.0737734  
C124     C      0.961220000000     0.282940000000     0.505770000000    -0.0852228  
C125     C      0.431130000000     0.253630000000     0.474920000000    -0.0850839  
C126     C      0.484730000000     0.271640000000     0.481760000000     0.0358408  
C127     C      0.498470000000     0.297620000000     0.489590000000    -0.0863051  
C128     C      0.459800000000     0.305060000000     0.490260000000     0.074706   
C129     C      0.393090000000     0.261640000000     0.476550000000     0.073175   
C130     C      0.525920000000     0.263410000000     0.481640000000     0.0359597  
C131     C      0.512580000000     0.237450000000     0.489280000000    -0.0860418  
C132     C      0.551760000000     0.230310000000     0.490150000000     0.0743662  
C133     C      0.617860000000     0.273930000000     0.476740000000     0.0739776  
C134     C      0.579430000000     0.281610000000     0.474900000000    -0.0854735  
C135     C      0.715190000000     0.214180000000     0.349340000000    -0.0868649  
C136     C      0.681810000000     0.187900000000     0.340330000000     0.0361279  
C137     C      0.657880000000     0.168420000000     0.363020000000    -0.0861371  
C138     C      0.666370000000     0.175610000000     0.393900000000     0.0738149  
C139     C      0.722400000000     0.220660000000     0.380290000000     0.0748771  
C140     C      0.668700000000     0.181460000000     0.307520000000     0.0361285  
C141     C      0.615880000000     0.165080000000     0.298540000000    -0.0868093  
C142     C      0.602790000000     0.161600000000     0.267610000000     0.074832   
C143     C      0.693260000000     0.189150000000     0.253940000000     0.0738931  
C144     C      0.707780000000     0.193260000000     0.284800000000    -0.0862027  
C145     C      0.702710000000     0.708950000000     0.432430000000     0.403512   
C146     C      0.692260000000     0.709110000000     0.548620000000     0.403923   
C147     C      0.817430000000     0.741790000000     0.494380000000     0.40387    
C148     C      0.641730000000     0.741030000000     0.486180000000     0.404046   
C149     C      0.625770000000     0.676330000000     0.099200000000     0.403297   
C150     C      0.626290000000     0.671340000000     0.215460000000     0.403271   
C151     C      0.562790000000     0.702030000000     0.161540000000     0.403669   
C152     C      0.561190000000     0.614190000000     0.153700000000     0.403621   
C153     C      0.322630000000     0.828850000000     0.548980000000     0.405355   
C154     C      0.312740000000     0.830770000000     0.433470000000     0.404982   
C155     C      0.370540000000     0.795150000000     0.485760000000     0.405096   
C156     C      0.197700000000     0.796340000000     0.495660000000     0.40495    
C157     C      0.390630000000     0.862800000000     0.099340000000     0.404821   
C158     C      0.387700000000     0.867830000000     0.214970000000     0.404788   
C159     C      0.457590000000     0.838560000000     0.162170000000     0.404436   
C160     C      0.455130000000     0.924980000000     0.152740000000     0.404311   
C161     C      0.313040000000     0.862710000000     0.882370000000     0.404266   
C162     C      0.320920000000     0.866660000000     0.766070000000     0.404048   
C163     C      0.196820000000     0.837140000000     0.821150000000     0.404026   
C164     C      0.371500000000     0.924490000000     0.827280000000     0.404649   
C165     C      0.701420000000     0.675990000000     0.882060000000     0.403838   
C166     C      0.692810000000     0.671560000000     0.765760000000     0.404002   
C167     C      0.817170000000     0.701320000000     0.820720000000     0.404166   
C168     C      0.642500000000     0.613980000000     0.827210000000     0.404128   
C169     C      0.499870000000     0.485610000000     0.822600000000    -0.0861039  
C170     C      0.486400000000     0.504860000000     0.830310000000     0.035985   
C171     C      0.432960000000     0.496280000000     0.837290000000    -0.0853905  
C172     C      0.394760000000     0.969350000000     0.835880000000     0.0739331  
C173     C      0.460980000000     0.958870000000     0.822160000000     0.074534   
C174     C      0.527590000000     0.533620000000     0.830320000000     0.0359552  
C175     C      0.581070000000     0.542190000000     0.837180000000    -0.0853298  
C176     C      0.619270000000     0.569120000000     0.835760000000     0.0738753  
C177     C      0.552960000000     0.579610000000     0.822290000000     0.0745417  
C178     C      0.514070000000     0.552870000000     0.822730000000    -0.0860929  
C179     C      0.939340000000     0.765520000000     0.825360000000    -0.0860996  
C180     C      0.978190000000     0.758920000000     0.817850000000     0.0359491  
C181     C      0.961300000000     0.732280000000     0.810980000000    -0.0853737  
C182     C      0.907320000000     0.713140000000     0.812310000000     0.0739769  
C183     C      0.885770000000     0.746030000000     0.825720000000     0.0745252  
C184     C      0.035820000000     0.779560000000     0.817950000000     0.0360056  
C185     C      0.052780000000     0.806180000000     0.810990000000    -0.0854007  
C186     C      0.106740000000     0.825320000000     0.812480000000     0.0739787  
C187     C      0.128150000000     0.792460000000     0.826210000000     0.0746236  
C188     C      0.074590000000     0.772970000000     0.825710000000    -0.0861828  
C189     C      0.309250000000     0.845500000000     0.030050000000    -0.086115   
C190     C      0.348050000000     0.852510000000     0.007280000000     0.0362878  
C191     C      0.400560000000     0.861500000000     0.016220000000    -0.086476   
C192     C      0.413680000000     0.864280000000     0.047160000000     0.0746826  
C193     C      0.323770000000     0.848380000000     0.060900000000     0.0739442  
C194     C      0.335070000000     0.852610000000     0.974480000000     0.0358409  
C195     C      0.358030000000     0.844560000000     0.951720000000    -0.0860411  
C196     C      0.349340000000     0.847460000000     0.920850000000     0.073807   
C197     C      0.295050000000     0.865520000000     0.934600000000     0.0746942  
C198     C      0.302550000000     0.862760000000     0.965530000000    -0.0866986  
C199     C      0.321270000000     0.872130000000     0.682930000000    -0.0867172  
C200     C      0.342140000000     0.856150000000     0.673940000000     0.036083   
C201     C      0.358430000000     0.844760000000     0.696680000000    -0.0861036  
C202     C      0.352260000000     0.848920000000     0.727550000000     0.0737524  
C203     C      0.315380000000     0.875710000000     0.713860000000     0.074751   
C204     C      0.342710000000     0.849830000000     0.641110000000     0.0361242  
C205     C      0.325200000000     0.823720000000     0.632060000000    -0.0867346  
C206     C      0.319860000000     0.817280000000     0.601100000000     0.0748064  
C207     C      0.350990000000     0.862070000000     0.587550000000     0.0738767  
C208     C      0.356530000000     0.869210000000     0.618430000000    -0.0861304  
C209     C      0.388520000000     0.880950000000     0.296590000000    -0.0857305  
C210     C      0.345650000000     0.857060000000     0.307380000000     0.0360485  
C211     C      0.314630000000     0.837730000000     0.285330000000    -0.0848324  
C212     C      0.327360000000     0.842270000000     0.254280000000     0.074298   
C213     C      0.401670000000     0.884180000000     0.265630000000     0.0756829  
C214     C      0.335080000000     0.851880000000     0.341140000000     0.0361038  
C215     C      0.374070000000     0.867070000000     0.363200000000    -0.0848573  
C216     C      0.364740000000     0.860740000000     0.394240000000     0.074241   
C217     C      0.279950000000     0.824250000000     0.382850000000     0.0757763  
C218     C      0.286680000000     0.830830000000     0.351910000000    -0.0858353  
C219     C      0.536880000000     0.496920000000     0.143300000000    -0.0852307  
C220     C      0.499880000000     0.505190000000     0.149460000000     0.0360124  
C221     C      0.447460000000     0.485640000000     0.156120000000    -0.0860604  
C222     C      0.433210000000     0.958960000000     0.156480000000     0.0747229  
C223     C      0.521510000000     0.970030000000     0.144680000000     0.0739842  
C224     C      0.515960000000     0.533930000000     0.149770000000     0.0358     
C225     C      0.567790000000     0.553290000000     0.157920000000    -0.0858915  
C226     C      0.582160000000     0.579970000000     0.158630000000     0.0744429  
C227     C      0.495000000000     0.569280000000     0.144450000000     0.0737153  
C228     C      0.479570000000     0.542400000000     0.142690000000    -0.0851473  
C229     C      0.451310000000     0.774470000000     0.158170000000    -0.0862208  
C230     C      0.503330000000     0.781070000000     0.165850000000     0.0358449  
C231     C      0.539900000000     0.807760000000     0.172610000000    -0.0850636  
C232     C      0.524310000000     0.826910000000     0.171070000000     0.0731435  
C233     C      0.436870000000     0.793930000000     0.157580000000     0.0745879  
C234     C      0.519280000000     0.760320000000     0.165930000000     0.0358184  
C235     C      0.482410000000     0.733690000000     0.172680000000    -0.0852855  
C236     C      0.497340000000     0.714350000000     0.170870000000     0.0738353  
C237     C      0.585070000000     0.746990000000     0.157440000000     0.074204   
C238     C      0.571210000000     0.766710000000     0.158280000000    -0.0858379  
C239     C      0.706540000000     0.694170000000     0.029630000000    -0.0861512  
C240     C      0.667330000000     0.686530000000     0.007000000000     0.0362561  
C241     C      0.614680000000     0.676900000000     0.016100000000    -0.0864424  
C242     C      0.601870000000     0.674130000000     0.047080000000     0.0746047  
C243     C      0.692330000000     0.691320000000     0.060540000000     0.0737765  
C244     C      0.680120000000     0.686410000000     0.974180000000     0.0358791  
C245     C      0.656350000000     0.694040000000     0.951470000000    -0.0861089  
C246     C      0.664850000000     0.691070000000     0.920590000000     0.0737466  
C247     C      0.720450000000     0.673740000000     0.934240000000     0.0746946  
C248     C      0.713200000000     0.676620000000     0.965180000000    -0.0867019  
C249     C      0.656120000000     0.693680000000     0.696290000000    -0.0860836  
C250     C      0.671710000000     0.681930000000     0.673610000000     0.0361025  
C251     C      0.691680000000     0.665590000000     0.682650000000    -0.086767   
C252     C      0.697510000000     0.662050000000     0.713600000000     0.0747608  
C253     C      0.662130000000     0.689530000000     0.727180000000     0.0737027  
C254     C      0.671500000000     0.688290000000     0.640780000000     0.0360959  
C255     C      0.690500000000     0.714520000000     0.631710000000    -0.0867464  
C256     C      0.696130000000     0.720920000000     0.600750000000     0.0747265  
C257     C      0.662350000000     0.675890000000     0.587230000000     0.073768   
C258     C      0.656560000000     0.668780000000     0.618130000000    -0.0861715  
C259     C      0.053520000000     0.755030000000     0.505030000000    -0.0852506  
C260     C      0.036470000000     0.773300000000     0.498950000000     0.0360123  
C261     C      0.075350000000     0.799530000000     0.492400000000    -0.086101   
C262     C      0.128980000000     0.806880000000     0.492050000000     0.0749681  
C263     C      0.107570000000     0.762940000000     0.503660000000     0.0740954  
C264     C      0.978700000000     0.765010000000     0.498590000000     0.035894   
C265     C      0.940290000000     0.739140000000     0.490270000000    -0.0860508  
C266     C      0.886640000000     0.731740000000     0.489490000000     0.0745164  
C267     C      0.907190000000     0.775020000000     0.503920000000     0.0737991  
C268     C      0.961210000000     0.782940000000     0.505770000000    -0.0852359  
C269     C      0.431120000000     0.753630000000     0.474920000000    -0.0850992  
C270     C      0.484720000000     0.771640000000     0.481760000000     0.0358688  
C271     C      0.498460000000     0.797620000000     0.489590000000    -0.0863423  
C272     C      0.459790000000     0.805060000000     0.490260000000     0.074744   
C273     C      0.393080000000     0.761640000000     0.476550000000     0.0731946  
C274     C      0.525910000000     0.763410000000     0.481640000000     0.035931   
C275     C      0.512570000000     0.737450000000     0.489280000000    -0.0859871  
C276     C      0.551760000000     0.730310000000     0.490150000000     0.0743877  
C277     C      0.617850000000     0.773930000000     0.476740000000     0.0739515  
C278     C      0.579420000000     0.781610000000     0.474900000000    -0.0854483  
C279     C      0.715180000000     0.714180000000     0.349350000000    -0.0868017  
C280     C      0.681800000000     0.687900000000     0.340330000000     0.0360835  
C281     C      0.657870000000     0.668420000000     0.363020000000    -0.0861052  
C282     C      0.666360000000     0.675610000000     0.393900000000     0.0737809  
C283     C      0.722400000000     0.720660000000     0.380290000000     0.0748359  
C284     C      0.668700000000     0.681470000000     0.307520000000     0.0361466  
C285     C      0.615880000000     0.665080000000     0.298540000000    -0.0867789  
C286     C      0.602780000000     0.661600000000     0.267610000000     0.0747793  
C287     C      0.693260000000     0.689150000000     0.253940000000     0.0738419  
C288     C      0.707770000000     0.693260000000     0.284810000000    -0.086162   
H1       H      0.420420000000     0.010170000000     0.844060000000     0.0532143  
H2       H      0.353930000000     0.463530000000     0.841270000000     0.0313863  
H3       H      0.473330000000     0.444740000000     0.815990000000     0.0320115  
H4       H      0.540060000000     0.991020000000     0.816280000000     0.0534813  
H5       H      0.593650000000     0.028300000000     0.843860000000     0.0533268  
H6       H      0.660130000000     0.074930000000     0.841050000000     0.0313666  
H7       H      0.540590000000     0.093740000000     0.816200000000     0.032      
H8       H      0.473850000000     0.047460000000     0.816520000000     0.053526   
H9       H      0.989350000000     0.226110000000     0.804360000000     0.0533177  
H10      H      0.895910000000     0.192800000000     0.807020000000     0.0313751  
H11      H      0.857240000000     0.252090000000     0.831750000000     0.031984   
H12      H      0.949950000000     0.285530000000     0.831590000000     0.0535076  
H13      H      0.024810000000     0.312340000000     0.804190000000     0.0533335  
H14      H      0.118220000000     0.345650000000     0.807100000000     0.0313959  
H15      H      0.156640000000     0.286400000000     0.832420000000     0.0319774  
H16      H      0.063920000000     0.252960000000     0.832000000000     0.0535102  
H17      H      0.431910000000     0.367420000000     0.999440000000     0.0541601  
H18      H      0.455090000000     0.371890000000     0.053030000000     0.0323602  
H19      H      0.292960000000     0.343200000000     0.077900000000     0.0315771  
H20      H      0.268050000000     0.338180000000     0.024070000000     0.0541079  
H21      H      0.383060000000     0.336380000000     0.957710000000     0.0538587  
H22      H      0.368280000000     0.341400000000     0.903850000000     0.0313276  
H23      H      0.270400000000     0.373980000000     0.928740000000     0.0325672  
H24      H      0.284560000000     0.369520000000     0.982300000000     0.0543538  
H25      H      0.375250000000     0.332460000000     0.690670000000     0.0539524  
H26      H      0.364550000000     0.339530000000     0.744540000000     0.0313375  
H27      H      0.298030000000     0.387820000000     0.719750000000     0.0326134  
H28      H      0.307570000000     0.381050000000     0.666180000000     0.0544019  
H29      H      0.313550000000     0.308070000000     0.648780000000     0.0543169  
H30      H      0.305000000000     0.296690000000     0.595150000000     0.0323285  
H31      H      0.361170000000     0.377450000000     0.570610000000     0.0315095  
H32      H      0.370810000000     0.389700000000     0.624500000000     0.0540095  
H33      H      0.281610000000     0.318650000000     0.291550000000     0.0526793  
H34      H      0.303020000000     0.326680000000     0.238210000000     0.0304121  
H35      H      0.436130000000     0.402630000000     0.258570000000     0.0305338  
H36      H      0.412770000000     0.397300000000     0.311640000000     0.0527944  
H37      H      0.412680000000     0.383290000000     0.357000000000     0.0526619  
H38      H      0.396210000000     0.372630000000     0.410330000000     0.0302774  
H39      H      0.242580000000     0.307310000000     0.389900000000     0.0305086  
H40      H      0.253740000000     0.319020000000     0.336850000000     0.0528032  
H41      H      0.417430000000     0.990740000000     0.161750000000     0.0534216  
H42      H      0.392260000000     0.444610000000     0.161910000000     0.0320606  
H43      H      0.551320000000     0.464490000000     0.140050000000     0.0312178  
H44      H      0.577570000000     0.010990000000     0.137260000000     0.053181   
H45      H      0.597230000000     0.048010000000     0.164370000000     0.0534988  
H46      H      0.622680000000     0.094160000000     0.165120000000     0.0321155  
H47      H      0.465720000000     0.075000000000     0.138980000000     0.0312012  
H48      H      0.439380000000     0.028490000000     0.135580000000     0.0532105  
H49      H      0.580320000000     0.313950000000     0.179270000000     0.0531363  
H50      H      0.553650000000     0.347290000000     0.176260000000     0.0304538  
H51      H      0.396170000000     0.287780000000     0.151410000000     0.0324611  
H52      H      0.421740000000     0.254450000000     0.151940000000     0.0535498  
H53      H      0.442130000000     0.227660000000     0.179490000000     0.0532674  
H54      H      0.467630000000     0.194020000000     0.176000000000     0.0312922  
H55      H      0.625640000000     0.252890000000     0.151250000000     0.0320787  
H56      H      0.601060000000     0.286720000000     0.152230000000     0.0534411  
H57      H      0.583060000000     0.170490000000     0.999410000000     0.0542272  
H58      H      0.560380000000     0.166030000000     0.053080000000     0.0325353  
H59      H      0.723480000000     0.197010000000     0.077440000000     0.0314794  
H60      H      0.747840000000     0.201960000000     0.023520000000     0.0541178  
H61      H      0.630850000000     0.201930000000     0.957510000000     0.053937   
H62      H      0.645300000000     0.196790000000     0.903620000000     0.0313134  
H63      H      0.745550000000     0.165540000000     0.928330000000     0.0325689  
H64      H      0.731840000000     0.170200000000     0.981930000000     0.0543579  
H65      H      0.704800000000     0.156380000000     0.665920000000     0.0544383  
H66      H      0.714230000000     0.149670000000     0.719540000000     0.0325711  
H67      H      0.650440000000     0.199210000000     0.744130000000     0.0313681  
H68      H      0.640020000000     0.206280000000     0.690220000000     0.0539568  
H69      H      0.703060000000     0.230260000000     0.648420000000     0.0544006  
H70      H      0.712150000000     0.241600000000     0.594780000000     0.0325193  
H71      H      0.651250000000     0.160400000000     0.570300000000     0.0313629  
H72      H      0.641190000000     0.148210000000     0.624220000000     0.0540378  
H73      H      0.064750000000     0.314370000000     0.486830000000     0.0534863  
H74      H      0.157500000000     0.327350000000     0.486710000000     0.0319702  
H75      H      0.119070000000     0.248220000000     0.508220000000     0.0312795  
H76      H      0.025560000000     0.234680000000     0.510980000000     0.0532504  
H77      H      0.951290000000     0.224630000000     0.483740000000     0.0535137  
H78      H      0.858500000000     0.211530000000     0.482850000000     0.0320072  
H79      H      0.895340000000     0.289450000000     0.509470000000     0.031271   
H80      H      0.988800000000     0.302980000000     0.513010000000     0.0532337  
H81      H      0.538720000000     0.312190000000     0.495870000000     0.0535847  
H82      H      0.472500000000     0.325370000000     0.496560000000     0.0324171  
H83      H      0.352120000000     0.247180000000     0.471310000000     0.0305202  
H84      H      0.418370000000     0.233460000000     0.468150000000     0.0531253  
H85      H      0.472320000000     0.222720000000     0.495320000000     0.0534765  
H86      H      0.539570000000     0.210040000000     0.496350000000     0.0320064  
H87      H      0.658740000000     0.288610000000     0.471640000000     0.0313395  
H88      H      0.591890000000     0.301730000000     0.468100000000     0.0533218  
H89      H      0.632150000000     0.147810000000     0.356950000000     0.054022   
H90      H      0.646590000000     0.160140000000     0.410850000000     0.0313837  
H91      H      0.747660000000     0.241370000000     0.386220000000     0.032554   
H92      H      0.733980000000     0.229890000000     0.332610000000     0.0545136  
H93      H      0.584370000000     0.155830000000     0.315310000000     0.0544624  
H94      H      0.561180000000     0.149200000000     0.261710000000     0.0325206  
H95      H      0.724310000000     0.198890000000     0.236960000000     0.031474   
H96      H      0.749190000000     0.205890000000     0.290840000000     0.054067   
H97      H      0.420420000000     0.510170000000     0.844060000000     0.0533048  
H98      H      0.353930000000     0.963530000000     0.841270000000     0.0314116  
H99      H      0.473330000000     0.944740000000     0.815980000000     0.0320218  
H100     H      0.540060000000     0.491020000000     0.816290000000     0.0534942  
H101     H      0.593650000000     0.528300000000     0.843860000000     0.0532973  
H102     H      0.660130000000     0.574940000000     0.841050000000     0.0314157  
H103     H      0.540580000000     0.593740000000     0.816200000000     0.0320182  
H104     H      0.473840000000     0.547460000000     0.816520000000     0.0534891  
H105     H      0.989340000000     0.726110000000     0.804350000000     0.0533272  
H106     H      0.895900000000     0.692800000000     0.807020000000     0.0313816  
H107     H      0.857230000000     0.752100000000     0.831750000000     0.0320135  
H108     H      0.949950000000     0.785540000000     0.831590000000     0.0534871  
H109     H      0.024800000000     0.812340000000     0.804190000000     0.0533232  
H110     H      0.118220000000     0.845650000000     0.807100000000     0.0314035  
H111     H      0.156630000000     0.786400000000     0.832410000000     0.0319668  
H112     H      0.063910000000     0.752960000000     0.832000000000     0.053523   
H113     H      0.431900000000     0.867420000000     0.999440000000     0.0541698  
H114     H      0.455080000000     0.871890000000     0.053030000000     0.0323647  
H115     H      0.292960000000     0.843200000000     0.077900000000     0.0315857  
H116     H      0.268040000000     0.838180000000     0.024070000000     0.0541066  
H117     H      0.383050000000     0.836370000000     0.957700000000     0.053905   
H118     H      0.368280000000     0.841390000000     0.903850000000     0.0313191  
H119     H      0.270400000000     0.873980000000     0.928740000000     0.0325884  
H120     H      0.284560000000     0.869520000000     0.982300000000     0.0543692  
H121     H      0.375240000000     0.832460000000     0.690670000000     0.0539712  
H122     H      0.364550000000     0.839530000000     0.744540000000     0.0313567  
H123     H      0.298020000000     0.887820000000     0.719750000000     0.0326066  
H124     H      0.307570000000     0.881050000000     0.666180000000     0.0544132  
H125     H      0.313540000000     0.808070000000     0.648780000000     0.0543531  
H126     H      0.305000000000     0.796690000000     0.595150000000     0.0323034  
H127     H      0.361160000000     0.877450000000     0.570610000000     0.0314915  
H128     H      0.370810000000     0.889700000000     0.624490000000     0.0540415  
H129     H      0.281600000000     0.818650000000     0.291550000000     0.0526949  
H130     H      0.303010000000     0.826680000000     0.238210000000     0.0303774  
H131     H      0.436110000000     0.902630000000     0.258570000000     0.0305557  
H132     H      0.412760000000     0.897300000000     0.311640000000     0.052749   
H133     H      0.412660000000     0.883290000000     0.356990000000     0.0526788  
H134     H      0.396190000000     0.872630000000     0.410330000000     0.0302961  
H135     H      0.242570000000     0.807310000000     0.389900000000     0.0305321  
H136     H      0.253730000000     0.819010000000     0.336850000000     0.0528043  
H137     H      0.417440000000     0.490740000000     0.161750000000     0.0534646  
H138     H      0.392260000000     0.944610000000     0.161910000000     0.0320804  
H139     H      0.551310000000     0.964480000000     0.140050000000     0.031266   
H140     H      0.577580000000     0.511000000000     0.137260000000     0.053247   
H141     H      0.597240000000     0.548010000000     0.164370000000     0.0534337  
H142     H      0.622680000000     0.594160000000     0.165120000000     0.0321189  
H143     H      0.465720000000     0.575000000000     0.138980000000     0.0312097  
H144     H      0.439380000000     0.528490000000     0.135580000000     0.0532093  
H145     H      0.580320000000     0.813950000000     0.179270000000     0.0531291  
H146     H      0.553650000000     0.847300000000     0.176270000000     0.0304785  
H147     H      0.396160000000     0.787780000000     0.151410000000     0.0324967  
H148     H      0.421740000000     0.754450000000     0.151940000000     0.0535529  
H149     H      0.442120000000     0.727660000000     0.179490000000     0.0532433  
H150     H      0.467630000000     0.694020000000     0.176000000000     0.0312924  
H151     H      0.625640000000     0.752890000000     0.151250000000     0.0320897  
H152     H      0.601050000000     0.786720000000     0.152230000000     0.0534277  
H153     H      0.583050000000     0.670490000000     0.999410000000     0.0541956  
H154     H      0.560380000000     0.666030000000     0.053080000000     0.0325563  
H155     H      0.723480000000     0.697010000000     0.077440000000     0.0314833  
H156     H      0.747840000000     0.701970000000     0.023520000000     0.054126   
H157     H      0.630840000000     0.701930000000     0.957510000000     0.0539784  
H158     H      0.645300000000     0.696790000000     0.903620000000     0.031327   
H159     H      0.745550000000     0.665540000000     0.928330000000     0.0325785  
H160     H      0.731840000000     0.670200000000     0.981930000000     0.0543546  
H161     H      0.704790000000     0.656380000000     0.665920000000     0.0544431  
H162     H      0.714220000000     0.649670000000     0.719540000000     0.032569   
H163     H      0.650430000000     0.699210000000     0.744130000000     0.0313619  
H164     H      0.640020000000     0.706280000000     0.690220000000     0.0539825  
H165     H      0.703050000000     0.730260000000     0.648420000000     0.0544072  
H166     H      0.712140000000     0.741600000000     0.594780000000     0.0325352  
H167     H      0.651240000000     0.660400000000     0.570310000000     0.0313616  
H168     H      0.641180000000     0.648210000000     0.624220000000     0.0540484  
H169     H      0.064730000000     0.814370000000     0.486830000000     0.0534542  
H170     H      0.157490000000     0.827350000000     0.486710000000     0.0319623  
H171     H      0.119060000000     0.748210000000     0.508220000000     0.0312914  
H172     H      0.025550000000     0.734680000000     0.510980000000     0.0532484  
H173     H      0.951280000000     0.724630000000     0.483740000000     0.0535149  
H174     H      0.858490000000     0.711530000000     0.482860000000     0.0320093  
H175     H      0.895330000000     0.789450000000     0.509470000000     0.0312669  
H176     H      0.988790000000     0.802980000000     0.513010000000     0.0532374  
H177     H      0.538710000000     0.812190000000     0.495860000000     0.0536024  
H178     H      0.472490000000     0.825370000000     0.496550000000     0.0324086  
H179     H      0.352110000000     0.747180000000     0.471310000000     0.0305116  
H180     H      0.418360000000     0.733460000000     0.468150000000     0.053131   
H181     H      0.472300000000     0.722710000000     0.495310000000     0.0534496  
H182     H      0.539560000000     0.710040000000     0.496350000000     0.0319954  
H183     H      0.658730000000     0.788600000000     0.471640000000     0.0313526  
H184     H      0.591880000000     0.801730000000     0.468100000000     0.0533158  
H185     H      0.632140000000     0.647810000000     0.356950000000     0.0540192  
H186     H      0.646590000000     0.660140000000     0.410860000000     0.0314165  
H187     H      0.747650000000     0.741370000000     0.386220000000     0.0325712  
H188     H      0.733980000000     0.729890000000     0.332610000000     0.0544807  
H189     H      0.584370000000     0.655830000000     0.315310000000     0.054458   
H190     H      0.561170000000     0.649200000000     0.261710000000     0.0325379  
H191     H      0.724310000000     0.698890000000     0.236960000000     0.0314895  
H192     H      0.749190000000     0.705890000000     0.290840000000     0.0540497  
In1      In     0.713390000000     0.225090000000     0.490480000000     2.48951    
In2      In     0.594060000000     0.166010000000     0.157390000000     2.48916    
In3      In     0.301360000000     0.312670000000     0.490830000000     2.4824     
In4      In     0.423190000000     0.373380000000     0.157450000000     2.4826     
In5      In     0.300720000000     0.372640000000     0.824230000000     2.4919     
In6      In     0.713320000000     0.165810000000     0.823920000000     2.49216    
In7      In     0.713380000000     0.725090000000     0.490490000000     2.48949    
In8      In     0.594060000000     0.666020000000     0.157390000000     2.4889     
In9      In     0.301350000000     0.812670000000     0.490830000000     2.48262    
In10     In     0.423180000000     0.873370000000     0.157450000000     2.48242    
In11     In     0.300720000000     0.872640000000     0.824220000000     2.49176    
In12     In     0.713310000000     0.665810000000     0.823920000000     2.49187    
N1       N      0.408830000000     0.450850000000     0.828470000000    -0.191807   
N2       N      0.605160000000     0.087620000000     0.828450000000    -0.191724   
N3       N      0.869980000000     0.220040000000     0.819540000000    -0.191856   
N4       N      0.144010000000     0.318430000000     0.819930000000    -0.191751   
N5       N      0.375800000000     0.358270000000     0.069270000000    -0.191786   
N6       N      0.318980000000     0.358360000000     0.912480000000    -0.191691   
N7       N      0.329910000000     0.363840000000     0.735970000000    -0.19163    
N8       N      0.331650000000     0.336190000000     0.579070000000    -0.191824   
N9       N      0.371740000000     0.364860000000     0.244780000000    -0.192502   
N10      N      0.318970000000     0.338870000000     0.403710000000    -0.19271    
N11      N      0.470080000000     0.451260000000     0.151200000000    -0.191184   
N12      N      0.545960000000     0.087870000000     0.152230000000    -0.191541   
N13      N      0.473150000000     0.319960000000     0.163690000000    -0.192023   
N14      N      0.548280000000     0.221000000000     0.163310000000    -0.19159    
N15      N      0.640220000000     0.180810000000     0.069070000000    -0.191527   
N16      N      0.695750000000     0.180470000000     0.912160000000    -0.191675   
N17      N      0.683750000000     0.174290000000     0.735650000000    -0.191571   
N18      N      0.683140000000     0.201850000000     0.578730000000    -0.191639   
N19      N      0.144880000000     0.288670000000     0.497230000000    -0.191219   
N20      N      0.870320000000     0.249590000000     0.495960000000    -0.191596   
N21      N      0.407500000000     0.287180000000     0.484100000000    -0.192124   
N22      N      0.604030000000     0.248480000000     0.484320000000    -0.191735   
N23      N      0.697380000000     0.201620000000     0.402340000000    -0.191546   
N24      N      0.641010000000     0.173930000000     0.245530000000    -0.191519   
N25      N      0.408830000000     0.950850000000     0.828470000000    -0.191827   
N26      N      0.605160000000     0.587630000000     0.828460000000    -0.191725   
N27      N      0.869980000000     0.720040000000     0.819540000000    -0.191727   
N28      N      0.144010000000     0.818430000000     0.819930000000    -0.191767   
N29      N      0.375790000000     0.858260000000     0.069270000000    -0.191764   
N30      N      0.318980000000     0.858360000000     0.912470000000    -0.191689   
N31      N      0.329900000000     0.863840000000     0.735960000000    -0.191579   
N32      N      0.331640000000     0.836190000000     0.579070000000    -0.191924   
N33      N      0.371720000000     0.864850000000     0.244780000000    -0.19251    
N34      N      0.318960000000     0.838870000000     0.403710000000    -0.192606   
N35      N      0.470070000000     0.951260000000     0.151200000000    -0.191143   
N36      N      0.545960000000     0.587870000000     0.152230000000    -0.191536   
N37      N      0.473140000000     0.819960000000     0.163700000000    -0.191978   
N38      N      0.548270000000     0.721000000000     0.163310000000    -0.191567   
N39      N      0.640220000000     0.680810000000     0.069070000000    -0.191454   
N40      N      0.695740000000     0.680470000000     0.912160000000    -0.191603   
N41      N      0.683740000000     0.674290000000     0.735650000000    -0.191606   
N42      N      0.683130000000     0.701850000000     0.578730000000    -0.191615   
N43      N      0.144870000000     0.788670000000     0.497230000000    -0.19125    
N44      N      0.870310000000     0.749590000000     0.495960000000    -0.191623   
N45      N      0.407490000000     0.787180000000     0.484100000000    -0.192212   
N46      N      0.604010000000     0.748480000000     0.484320000000    -0.191701   
N47      N      0.697380000000     0.701620000000     0.402350000000    -0.191521   
N48      N      0.641010000000     0.673930000000     0.245530000000    -0.191453   
O1       O      0.629330000000     0.217090000000     0.490110000000    -0.520446   
O2       O      0.691400000000     0.257380000000     0.484360000000    -0.496293   
O3       O      0.680210000000     0.192550000000     0.526860000000    -0.497091   
O4       O      0.681900000000     0.192420000000     0.454240000000    -0.496373   
O5       O      0.799970000000     0.257870000000     0.496520000000    -0.495234   
O6       O      0.728180000000     0.233070000000     0.440400000000    -0.522923   
O7       O      0.714630000000     0.233180000000     0.540570000000    -0.523172   
O8       O      0.782230000000     0.217770000000     0.490430000000    -0.52083    
O9       O      0.609320000000     0.131890000000     0.157500000000    -0.520659   
O10      O      0.528640000000     0.122720000000     0.151600000000    -0.495116   
O11      O      0.659500000000     0.181600000000     0.193640000000    -0.496273   
O12      O      0.659120000000     0.182520000000     0.120920000000    -0.49699    
O13      O      0.529690000000     0.177310000000     0.163410000000    -0.496078   
O14      O      0.577500000000     0.165100000000     0.107320000000    -0.523112   
O15      O      0.577910000000     0.158780000000     0.207490000000    -0.5229     
O16      O      0.610720000000     0.208020000000     0.157650000000    -0.520138   
O17      O      0.233240000000     0.320470000000     0.492740000000    -0.51834    
O18      O      0.214740000000     0.280020000000     0.496420000000    -0.494381   
O19      O      0.341300000000     0.345600000000     0.455160000000    -0.495917   
O20      O      0.333210000000     0.345260000000     0.527230000000    -0.495058   
O21      O      0.320690000000     0.279320000000     0.483690000000    -0.496041   
O22      O      0.301720000000     0.304830000000     0.540920000000    -0.52266    
O23      O      0.279020000000     0.307330000000     0.441120000000    -0.520021   
O24      O      0.384040000000     0.319170000000     0.490020000000    -0.523225   
O25      O      0.406880000000     0.407120000000     0.155740000000    -0.518417   
O26      O      0.488200000000     0.416680000000     0.151850000000    -0.494595   
O27      O      0.357490000000     0.353760000000     0.193340000000    -0.495812   
O28      O      0.357750000000     0.357390000000     0.121140000000    -0.495081   
O29      O      0.489720000000     0.363390000000     0.164200000000    -0.495773   
O30      O      0.438890000000     0.373390000000     0.107330000000    -0.522704   
O31      O      0.434840000000     0.384410000000     0.207200000000    -0.519874   
O32      O      0.409480000000     0.332040000000     0.158140000000    -0.523049   
O33      O      0.384350000000     0.406880000000     0.823600000000    -0.521762   
O34      O      0.321820000000     0.415840000000     0.829560000000    -0.496198   
O35      O      0.334210000000     0.356720000000     0.787910000000    -0.49678    
O36      O      0.333080000000     0.356150000000     0.860520000000    -0.496822   
O37      O      0.213930000000     0.361890000000     0.818900000000    -0.49604    
O38      O      0.287600000000     0.374110000000     0.874400000000    -0.523633   
O39      O      0.297730000000     0.379190000000     0.774060000000    -0.523304   
O40      O      0.232340000000     0.330860000000     0.824840000000    -0.521561   
O41      O      0.629660000000     0.131590000000     0.823580000000    -0.521755   
O42      O      0.692210000000     0.122610000000     0.829340000000    -0.49596    
O43      O      0.679960000000     0.181730000000     0.787560000000    -0.496984   
O44      O      0.680940000000     0.182290000000     0.860230000000    -0.496994   
O45      O      0.800120000000     0.176570000000     0.818590000000    -0.4963     
O46      O      0.727080000000     0.164690000000     0.874070000000    -0.523651   
O47      O      0.715730000000     0.158900000000     0.773790000000    -0.523276   
O48      O      0.781640000000     0.207590000000     0.824280000000    -0.522127   
O49      O      0.629320000000     0.717090000000     0.490110000000    -0.52042    
O50      O      0.691390000000     0.757380000000     0.484360000000    -0.496256   
O51      O      0.680200000000     0.692550000000     0.526860000000    -0.497191   
O52      O      0.681890000000     0.692420000000     0.454240000000    -0.496371   
O53      O      0.799960000000     0.757870000000     0.496520000000    -0.495114   
O54      O      0.728170000000     0.733070000000     0.440400000000    -0.522805   
O55      O      0.714620000000     0.733180000000     0.540570000000    -0.52335    
O56      O      0.782220000000     0.717770000000     0.490430000000    -0.520935   
O57      O      0.609320000000     0.631890000000     0.157500000000    -0.520397   
O58      O      0.528640000000     0.622720000000     0.151600000000    -0.494949   
O59      O      0.659500000000     0.681600000000     0.193640000000    -0.496192   
O60      O      0.659120000000     0.682520000000     0.120920000000    -0.49688    
O61      O      0.529680000000     0.677310000000     0.163410000000    -0.496057   
O62      O      0.577490000000     0.665100000000     0.107320000000    -0.523041   
O63      O      0.577900000000     0.658780000000     0.207490000000    -0.522724   
O64      O      0.610720000000     0.708020000000     0.157660000000    -0.520273   
O65      O      0.233230000000     0.820460000000     0.492740000000    -0.518696   
O66      O      0.214720000000     0.780020000000     0.496420000000    -0.494712   
O67      O      0.341290000000     0.845600000000     0.455160000000    -0.495863   
O68      O      0.333200000000     0.845250000000     0.527230000000    -0.495391   
O69      O      0.320680000000     0.779320000000     0.483690000000    -0.496164   
O70      O      0.301710000000     0.804830000000     0.540920000000    -0.522744   
O71      O      0.279010000000     0.807320000000     0.441110000000    -0.519711   
O72      O      0.384020000000     0.819160000000     0.490020000000    -0.523479   
O73      O      0.406870000000     0.907120000000     0.155740000000    -0.51813    
O74      O      0.488190000000     0.916680000000     0.151840000000    -0.494397   
O75      O      0.357480000000     0.853760000000     0.193340000000    -0.49586    
O76      O      0.357740000000     0.857390000000     0.121140000000    -0.495043   
O77      O      0.489710000000     0.863390000000     0.164200000000    -0.495908   
O78      O      0.438880000000     0.873380000000     0.107330000000    -0.522674   
O79      O      0.434830000000     0.884410000000     0.207190000000    -0.519923   
O80      O      0.409470000000     0.832030000000     0.158140000000    -0.523075   
O81      O      0.384340000000     0.906880000000     0.823600000000    -0.521934   
O82      O      0.321820000000     0.915840000000     0.829560000000    -0.496207   
O83      O      0.334210000000     0.856720000000     0.787900000000    -0.496831   
O84      O      0.333070000000     0.856150000000     0.860520000000    -0.4969     
O85      O      0.213920000000     0.861890000000     0.818900000000    -0.495957   
O86      O      0.287590000000     0.874110000000     0.874400000000    -0.523478   
O87      O      0.297730000000     0.879190000000     0.774060000000    -0.523561   
O88      O      0.232330000000     0.830860000000     0.824830000000    -0.521648   
O89      O      0.629660000000     0.631600000000     0.823580000000    -0.52178    
O90      O      0.692200000000     0.622610000000     0.829340000000    -0.495915   
O91      O      0.679950000000     0.681730000000     0.787560000000    -0.496969   
O92      O      0.680930000000     0.682300000000     0.860230000000    -0.496688   
O93      O      0.800110000000     0.676570000000     0.818590000000    -0.496158   
O94      O      0.727080000000     0.664690000000     0.874070000000    -0.52329    
O95      O      0.715730000000     0.658910000000     0.773790000000    -0.523466   
O96      O      0.781630000000     0.707600000000     0.824280000000    -0.521723   


