data_structure

_audit_creation_method RASPA-1.0
_audit_creation_date 2023-5-22
_audit_author_name 'Poobodin Mano'

_cell_length_a    45.6634
_cell_length_b    47.1267
_cell_length_c    42.7069
_cell_angle_alpha 90
_cell_angle_beta  90
_cell_angle_gamma 90
_cell_volume      91903.8

_symmetry_cell_setting          triclinic
_symmetry_space_group_name_Hall 'P 1'
_symmetry_space_group_name_H-M  'P 1'
_symmetry_Int_Tables_number     1

_symmetry_equiv_pos_as_xyz 'x,y,z'

loop_
_atom_site_label
_atom_site_type_symbol
_atom_site_fract_x
_atom_site_fract_y
_atom_site_fract_z
_atom_site_charge
C1       C      0.898840000000     0.395790000000     0.941240000000     0.41865    
C2       C      0.834030000000     0.320830000000     0.940370000000     0.414932   
C3       C      0.836050000000     0.393940000000     0.871560000000     0.410579   
C4       C      0.903350000000     0.321300000000     0.876430000000     0.414142   
C5       C      0.086380000000     0.571340000000     0.120610000000     0.413914   
C6       C      0.154650000000     0.642270000000     0.121010000000     0.419932   
C7       C      0.087550000000     0.637750000000     0.192070000000     0.415846   
C8       C      0.159600000000     0.571050000000     0.186490000000     0.413729   
C9       C      0.336550000000     0.821200000000     0.939150000000     0.411871   
C10      C      0.405780000000     0.887780000000     0.938640000000     0.416304   
C11      C      0.404230000000     0.821610000000     0.864860000000     0.42194    
C12      C      0.335840000000     0.889900000000     0.869780000000     0.412414   
C13      C      0.658210000000     0.135180000000     0.121060000000     0.420028   
C14      C      0.584240000000     0.069590000000     0.121030000000     0.417296   
C15      C      0.654990000000     0.066520000000     0.189560000000     0.420477   
C16      C      0.587380000000     0.138750000000     0.188480000000     0.417891   
C17      C      0.336230000000     0.385340000000     0.365240000000     0.418894   
C18      C      0.401760000000     0.389380000000     0.440680000000     0.41731    
C19      C      0.339670000000     0.318550000000     0.441570000000     0.416659   
C20      C      0.404180000000     0.318470000000     0.368410000000     0.417592   
C21      C      0.658970000000     0.572520000000     0.683740000000     0.417633   
C22      C      0.584910000000     0.639880000000     0.684710000000     0.409719   
C23      C      0.653860000000     0.641940000000     0.617310000000     0.419326   
C24      C      0.585480000000     0.569500000000     0.619170000000     0.413308   
C25      C      0.909860000000     0.821430000000     0.373260000000     0.41229    
C26      C      0.837810000000     0.889900000000     0.373320000000     0.4142     
C27      C      0.839380000000     0.822250000000     0.441040000000     0.411473   
C28      C      0.910470000000     0.891840000000     0.438690000000     0.41789    
C29      C      0.084680000000     0.141510000000     0.694730000000     0.412091   
C30      C      0.153400000000     0.075470000000     0.696730000000     0.417893   
C31      C      0.086500000000     0.074500000000     0.622910000000     0.41573    
C32      C      0.154700000000     0.142010000000     0.622930000000     0.417759   
C33      C      0.971200000000     0.939860000000     0.460900000000    -0.106581   
C34      C      0.045570000000     0.043830000000     0.617350000000     0.0770669  
C35      C      0.076550000000     0.052720000000     0.573870000000     0.0757999  
C36      C      0.028050000000     0.025970000000     0.599200000000    -0.0948377  
C37      C      0.986000000000     0.003400000000     0.549800000000    -0.0353592  
C38      C      0.968760000000     0.985400000000     0.531480000000    -0.0338363  
C39      C      0.016710000000     0.002190000000     0.548100000000    -0.00630628 
C40      C      0.059620000000     0.034840000000     0.555090000000    -0.0944729  
C41      C      0.981820000000     0.965640000000     0.511120000000    -0.00888099 
C42      C      0.937960000000     0.934250000000     0.503980000000    -0.0974088  
C43      C      0.012570000000     0.964440000000     0.509450000000    -0.0337767  
C44      C      0.920900000000     0.916300000000     0.485540000000     0.0758657  
C45      C      0.953780000000     0.921670000000     0.442770000000     0.104287   
C46      C      0.029800000000     0.982560000000     0.527660000000    -0.0354875  
C47      C      0.035010000000     0.021240000000     0.567680000000     0.051035   
C48      C      0.963440000000     0.946330000000     0.491770000000     0.0562039  
C49      C      0.681460000000     0.687960000000     0.553610000000    -0.107148   
C50      C      0.830520000000     0.795540000000     0.487270000000     0.0760194  
C51      C      0.794810000000     0.796870000000     0.446980000000     0.0751573  
C52      C      0.812680000000     0.777780000000     0.505230000000    -0.0941994  
C53      C      0.762960000000     0.754000000000     0.544870000000    -0.0355368  
C54      C      0.744500000000     0.736300000000     0.562230000000    -0.0337534  
C55      C      0.766050000000     0.750240000000     0.512370000000    -0.00614663 
C56      C      0.776450000000     0.779110000000     0.464270000000    -0.094205   
C57      C      0.728730000000     0.714430000000     0.547480000000    -0.00910828 
C58      C      0.716570000000     0.685870000000     0.595350000000    -0.0976022  
C59      C      0.732050000000     0.710530000000     0.515040000000    -0.033837   
C60      C      0.697600000000     0.668160000000     0.611910000000     0.0750519  
C61      C      0.662710000000     0.670190000000     0.570640000000     0.105586   
C62      C      0.750460000000     0.728230000000     0.497690000000    -0.0355969  
C63      C      0.785290000000     0.769280000000     0.493760000000     0.0505337  
C64      C      0.708690000000     0.695860000000     0.565750000000     0.0563929  
C65      C      0.312530000000     0.255540000000     0.484450000000    -0.106657   
C66      C      0.164800000000     0.186600000000     0.599350000000     0.0754397  
C67      C      0.198340000000     0.148550000000     0.593570000000     0.0764733  
C68      C      0.182950000000     0.204340000000     0.581760000000    -0.0943461  
C69      C      0.217700000000     0.231670000000     0.529150000000    -0.035394   
C70      C      0.236260000000     0.249120000000     0.511640000000    -0.0337836  
C71      C      0.229220000000     0.212610000000     0.551280000000    -0.0062047  
C72      C      0.217030000000     0.165690000000     0.575900000000    -0.0945322  
C73      C      0.266770000000     0.247900000000     0.515840000000    -0.00898783 
C74      C      0.279350000000     0.294570000000     0.491140000000    -0.0979704  
C75      C      0.278290000000     0.228900000000     0.538020000000    -0.0338538  
C76      C      0.297820000000     0.311370000000     0.472940000000     0.0767379  
C77      C      0.330790000000     0.272790000000     0.466150000000     0.10449    
C78      C      0.259730000000     0.211470000000     0.555540000000    -0.0353925  
C79      C      0.209490000000     0.193990000000     0.569850000000     0.0507819  
C80      C      0.286500000000     0.266260000000     0.496970000000     0.056565   
C81      C      0.428600000000     0.431480000000     0.508030000000    -0.106614   
C82      C      0.574990000000     0.543610000000     0.572820000000     0.0757918  
C83      C      0.542060000000     0.541860000000     0.615720000000     0.0747139  
C84      C      0.556860000000     0.525680000000     0.555460000000    -0.0942795  
C85      C      0.522800000000     0.475180000000     0.531000000000    -0.0354069  
C86      C      0.504430000000     0.457670000000     0.513370000000    -0.0338824  
C87      C      0.511060000000     0.496610000000     0.550180000000    -0.00621306 
C88      C      0.523420000000     0.523870000000     0.599020000000    -0.094099   
C89      C      0.473870000000     0.461100000000     0.514540000000    -0.0090237  
C90      C      0.461600000000     0.436010000000     0.464580000000    -0.0978069  
C91      C      0.462090000000     0.482360000000     0.533890000000    -0.0339739  
C92      C      0.443340000000     0.418450000000     0.447040000000     0.0757166  
C93      C      0.410570000000     0.413760000000     0.490010000000     0.103572   
C94      C      0.480480000000     0.499930000000     0.551480000000    -0.0353957  
C95      C      0.530690000000     0.515580000000     0.568470000000     0.0505365  
C96      C      0.454420000000     0.442650000000     0.495480000000     0.0561874  
C97      C      0.698080000000     0.004410000000     0.215880000000    -0.106728   
C98      C      0.810960000000     0.932810000000     0.367810000000     0.0753964  
C99      C      0.809480000000     0.898140000000     0.327600000000     0.0765169  
C100     C      0.792420000000     0.950510000000     0.350590000000    -0.094217   
C101     C      0.767820000000     0.989740000000     0.300420000000    -0.0355132  
C102     C      0.749820000000     0.007080000000     0.282120000000    -0.0334504  
C103     C      0.762610000000     0.960390000000     0.302370000000    -0.00610157 
C104     C      0.790880000000     0.915250000000     0.309800000000    -0.0944076  
C105     C      0.726180000000     0.995470000000     0.265350000000    -0.00914249 
C106     C      0.698850000000     0.040730000000     0.255260000000    -0.0976423  
C107     C      0.720790000000     0.966160000000     0.267580000000    -0.0337499  
C108     C      0.681360000000     0.057630000000     0.236050000000     0.0760997  
C109     C      0.680530000000     0.021730000000     0.196920000000     0.104603   
C110     C      0.738800000000     0.948830000000     0.285850000000    -0.0354896  
C111     C      0.782150000000     0.941820000000     0.321200000000     0.0508075  
C112     C      0.707430000000     0.013770000000     0.245290000000     0.0565815  
C113     C      0.547650000000     0.202680000000     0.215470000000    -0.106882   
C114     C      0.448570000000     0.293090000000     0.361290000000     0.0769928  
C115     C      0.411320000000     0.290500000000     0.322710000000     0.0760042  
C116     C      0.466440000000     0.275120000000     0.343700000000    -0.0946953  
C117     C      0.492880000000     0.224590000000     0.310350000000    -0.0353503  
C118     C      0.511120000000     0.207100000000     0.292540000000    -0.0337716  
C119     C      0.475420000000     0.245390000000     0.295870000000    -0.00620207 
C120     C      0.428580000000     0.272380000000     0.304550000000    -0.0942481  
C121     C      0.512300000000     0.209890000000     0.259780000000    -0.0089614  
C122     C      0.535840000000     0.162920000000     0.248240000000    -0.0977051  
C123     C      0.494630000000     0.230490000000     0.245270000000    -0.0338715  
C124     C      0.554630000000     0.146120000000     0.230410000000     0.0760632  
C125     C      0.566390000000     0.185400000000     0.197800000000     0.104375   
C126     C      0.476450000000     0.248050000000     0.263090000000    -0.0353748  
C127     C      0.456550000000     0.264470000000     0.314940000000     0.0508896  
C128     C      0.532090000000     0.191570000000     0.240870000000     0.0561666  
C129     C      0.208230000000     0.050430000000     0.754240000000    -0.106846   
C130     C      0.299680000000     0.897240000000     0.830580000000     0.0761983  
C131     C      0.318550000000     0.936400000000     0.859050000000     0.075309   
C132     C      0.281300000000     0.915220000000     0.813560000000    -0.0945955  
C133     C      0.233020000000     0.956880000000     0.795560000000    -0.0354899  
C134     C      0.214840000000     0.975380000000     0.778940000000    -0.0339454  
C135     C      0.262400000000     0.964000000000     0.801390000000    -0.00631129 
C136     C      0.300610000000     0.955000000000     0.842340000000    -0.0944114  
C137     C      0.225670000000     0.001380000000     0.767630000000    -0.00892348 
C138     C      0.186120000000     0.010730000000     0.728180000000    -0.0972873  
C139     C      0.255130000000     0.008390000000     0.773360000000    -0.0337422  
C140     C      0.168560000000     0.029500000000     0.711330000000     0.0752595  
C141     C      0.190430000000     0.068950000000     0.736980000000     0.105214   
C142     C      0.273250000000     0.989960000000     0.790110000000    -0.0356235  
C143     C      0.281660000000     0.944490000000     0.819310000000     0.050751   
C144     C      0.206410000000     0.021080000000     0.749810000000     0.0562247  
C145     C      0.448510000000     0.794960000000     0.798460000000    -0.10685    
C146     C      0.557110000000     0.649120000000     0.730610000000     0.0757951  
C147     C      0.558860000000     0.683260000000     0.689840000000     0.074881   
C148     C      0.538950000000     0.666780000000     0.748300000000    -0.0941391  
C149     C      0.487570000000     0.701710000000     0.772040000000    -0.0355189  
C150     C      0.469730000000     0.719750000000     0.789660000000    -0.033872   
C151     C      0.511550000000     0.712540000000     0.755190000000    -0.00617932 
C152     C      0.540790000000     0.701470000000     0.706930000000    -0.0940712  
C153     C      0.475450000000     0.749050000000     0.790880000000    -0.00901804 
C154     C      0.446580000000     0.760040000000     0.839300000000    -0.0975603  
C155     C      0.499420000000     0.759880000000     0.774010000000    -0.0338554  
C156     C      0.429100000000     0.778360000000     0.856840000000     0.0751395  
C157     C      0.430900000000     0.813070000000     0.816470000000     0.105157   
C158     C      0.517240000000     0.741840000000     0.756360000000    -0.0354139  
C159     C      0.530620000000     0.693350000000     0.736570000000     0.0505285  
C160     C      0.456590000000     0.768240000000     0.809780000000     0.0563039  
C161     C      0.519780000000     0.028530000000     0.094460000000    -0.10687    
C162     C      0.451550000000     0.910350000000     0.947550000000     0.0758433  
C163     C      0.412380000000     0.917200000000     0.983210000000     0.076773   
C164     C      0.469480000000     0.928260000000     0.965200000000    -0.094156   
C165     C      0.506870000000     0.954240000000     0.016650000000    -0.0355647  
C166     C      0.524260000000     0.972450000000     0.034570000000    -0.0336433  
C167     C      0.477170000000     0.960470000000     0.011340000000    -0.00586673 
C168     C      0.429680000000     0.935220000000     0.001400000000    -0.0941046  
C169     C      0.512360000000     0.997290000000     0.047600000000    -0.00928572 
C170     C      0.559420000000     0.022920000000     0.058090000000    -0.0978084  
C171     C      0.482700000000     0.003580000000     0.042190000000    -0.0336394  
C172     C      0.576440000000     0.040860000000     0.076600000000     0.0758186  
C173     C      0.537260000000     0.046470000000     0.112780000000     0.103836   
C174     C      0.465310000000     0.985390000000     0.024260000000    -0.035684   
C175     C      0.458580000000     0.941050000000     0.992440000000     0.0504435  
C176     C      0.530760000000     0.016500000000     0.066940000000     0.0563923  
C177     C      0.041960000000     0.664000000000     0.257670000000    -0.106778   
C178     C      0.937730000000     0.812010000000     0.327470000000     0.0757192  
C179     C      0.934780000000     0.777460000000     0.367730000000     0.0746328  
C180     C      0.955470000000     0.794080000000     0.309630000000    -0.094302   
C181     C      0.006030000000     0.758030000000     0.285870000000    -0.0354565  
C182     C      0.023410000000     0.739740000000     0.268030000000    -0.0338067  
C183     C      0.981520000000     0.747690000000     0.302180000000    -0.00626146 
C184     C      0.952380000000     0.758960000000     0.350460000000    -0.094298   
C185     C      0.016650000000     0.710690000000     0.266020000000    -0.008915   
C186     C      0.046070000000     0.699770000000     0.217920000000    -0.0972647  
C187     C      0.992120000000     0.700360000000     0.282340000000    -0.0338589  
C188     C      0.063420000000     0.681350000000     0.200380000000     0.0747558  
C189     C      0.059440000000     0.645780000000     0.239640000000     0.105097   
C190     C      0.974790000000     0.718630000000     0.300240000000    -0.0354716  
C191     C      0.962940000000     0.767150000000     0.321010000000     0.0504883  
C192     C      0.035110000000     0.691240000000     0.246950000000     0.0561867  
C193     C      0.179520000000     0.692250000000     0.059690000000    -0.107327   
C194     C      0.330290000000     0.791930000000     0.983960000000     0.0756759  
C195     C      0.290430000000     0.799920000000     0.949470000000     0.0748508  
C196     C      0.312780000000     0.774750000000     0.002940000000    -0.0938518  
C197     C      0.275250000000     0.726420000000     0.027760000000    -0.0355456  
C198     C      0.257140000000     0.708930000000     0.045770000000    -0.0338273  
C199     C      0.264390000000     0.751760000000     0.014810000000    -0.00594233 
C200     C      0.272320000000     0.782880000000     0.967890000000    -0.0940525  
C201     C      0.227770000000     0.716370000000     0.051210000000    -0.00913423 
C202     C      0.218150000000     0.684050000000     0.096710000000    -0.0976768  
C203     C      0.217020000000     0.741860000000     0.038570000000    -0.0338474  
C204     C      0.199560000000     0.666050000000     0.113360000000     0.0751626  
C205     C      0.161210000000     0.674060000000     0.076730000000     0.105831   
C206     C      0.235110000000     0.759350000000     0.020600000000    -0.0355416  
C207     C      0.283400000000     0.770040000000     0.995020000000     0.0501109  
C208     C      0.208240000000     0.697360000000     0.069510000000     0.0565705  
C209     C      0.271990000000     0.415580000000     0.324320000000    -0.107302   
C210     C      0.189750000000     0.529980000000     0.188730000000     0.0750337  
C211     C      0.184220000000     0.559110000000     0.233640000000     0.0760305  
C212     C      0.207940000000     0.511500000000     0.205370000000    -0.0945177  
C213     C      0.258800000000     0.486370000000     0.243300000000    -0.0355988  
C214     C      0.276010000000     0.467660000000     0.260860000000    -0.0339159  
C215     C      0.232290000000     0.496810000000     0.255430000000    -0.00651416 
C216     C      0.202010000000     0.540920000000     0.251060000000    -0.0947888  
C217     C      0.266820000000     0.458740000000     0.290690000000    -0.00942485 
C218     C      0.314910000000     0.443070000000     0.312840000000    -0.0979528  
C219     C      0.240230000000     0.469070000000     0.302710000000    -0.0339503  
C220     C      0.331310000000     0.424710000000     0.331520000000     0.07476    
C221     C      0.288910000000     0.397180000000     0.342700000000     0.104457   
C222     C      0.223230000000     0.488010000000     0.285330000000    -0.0356158  
C223     C      0.214000000000     0.516730000000     0.236990000000     0.0507834  
C224     C      0.284870000000     0.438780000000     0.309360000000     0.0564796  
C225     C      0.966120000000     0.275970000000     0.853950000000    -0.106787   
C226     C      0.041230000000     0.168690000000     0.700700000000     0.0761774  
C227     C      0.074880000000     0.164980000000     0.742810000000     0.0751102  
C228     C      0.022970000000     0.186010000000     0.718670000000    -0.0946122  
C229     C      0.981520000000     0.208040000000     0.769130000000    -0.0356203  
C230     C      0.963730000000     0.225700000000     0.787270000000    -0.0336973  
C231     C      0.012030000000     0.211890000000     0.768630000000    -0.00626479 
C232     C      0.057250000000     0.182420000000     0.761350000000    -0.0945293  
C233     C      0.976010000000     0.247750000000     0.805190000000    -0.00897502 
C234     C      0.929850000000     0.275720000000     0.813290000000    -0.0971878  
C235     C      0.006560000000     0.251600000000     0.804570000000    -0.0337366  
C236     C      0.912490000000     0.293640000000     0.831450000000     0.0750406  
C237     C      0.948370000000     0.294080000000     0.871790000000     0.104927   
C238     C      0.024360000000     0.233820000000     0.786590000000    -0.0356204  
C239     C      0.030950000000     0.193160000000     0.749340000000     0.0507622  
C240     C      0.957080000000     0.266700000000     0.824370000000     0.0561206  
C241     C      0.722240000000     0.176980000000     0.094660000000    -0.106978   
C242     C      0.789290000000     0.295910000000     0.947690000000     0.0750378  
C243     C      0.827990000000     0.290460000000     0.984230000000     0.0752152  
C244     C      0.771710000000     0.277380000000     0.964980000000    -0.0939739  
C245     C      0.746360000000     0.225140000000     0.997070000000    -0.0360319  
C246     C      0.729230000000     0.206690000000     0.015010000000    -0.0333269  
C247     C      0.764040000000     0.245720000000     0.011600000000    -0.00561625 
C248     C      0.811020000000     0.271910000000     0.002100000000    -0.0939254  
C249     C      0.729350000000     0.208420000000     0.047880000000    -0.00923913 
C250     C      0.682770000000     0.181770000000     0.057920000000    -0.0979145  
C251     C      0.746930000000     0.229090000000     0.062380000000    -0.0335719  
C252     C      0.665930000000     0.163650000000     0.076400000000     0.0767612  
C253     C      0.704950000000     0.158760000000     0.112880000000     0.105073   
C254     C      0.764070000000     0.247500000000     0.044460000000    -0.0356846  
C255     C      0.782470000000     0.265200000000     0.992620000000     0.0500204  
C256     C      0.711220000000     0.188790000000     0.067030000000     0.056763   
C257     C      0.712760000000     0.517290000000     0.705850000000    -0.10704    
C258     C      0.800270000000     0.430290000000     0.866980000000     0.0756209  
C259     C      0.822910000000     0.411710000000     0.821440000000     0.0751991  
C260     C      0.783330000000     0.448630000000     0.848770000000    -0.0938899  
C261     C      0.738380000000     0.473300000000     0.804520000000    -0.0352128  
C262     C      0.721090000000     0.490980000000     0.785860000000    -0.0339258  
C263     C      0.767560000000     0.467300000000     0.796180000000    -0.00602323 
C264     C      0.806100000000     0.429550000000     0.802490000000    -0.0936481  
C265     C      0.732430000000     0.502830000000     0.758230000000    -0.0090766  
C266     C      0.697040000000     0.542860000000     0.751470000000    -0.0978509  
C267     C      0.761490000000     0.496840000000     0.749760000000    -0.0340051  
C268     C      0.679450000000     0.559810000000     0.732450000000     0.0755199  
C269     C      0.694670000000     0.534380000000     0.687180000000     0.104694   
C270     C      0.778910000000     0.479410000000     0.768590000000    -0.035346   
C271     C      0.785930000000     0.448340000000     0.816040000000     0.0503212  
C272     C      0.713880000000     0.521270000000     0.738250000000     0.0564707  
C273     C      0.926480000000     0.440530000000     0.006030000000    -0.106589   
C274     C      0.076170000000     0.546650000000     0.073380000000     0.0757207  
C275     C      0.041740000000     0.545970000000     0.114940000000     0.0747534  
C276     C      0.057730000000     0.529890000000     0.054990000000    -0.0944363  
C277     C      0.021840000000     0.481200000000     0.028680000000    -0.0355452  
C278     C      0.003050000000     0.464310000000     0.010800000000    -0.0337715  
C279     C      0.010660000000     0.503130000000     0.047550000000    -0.00627108 
C280     C      0.022770000000     0.529180000000     0.097210000000    -0.0942846  
C281     C      0.972640000000     0.468890000000     0.011430000000    -0.00889726 
C282     C      0.959600000000     0.442450000000     0.962440000000    -0.0976322  
C283     C      0.961460000000     0.490910000000     0.030140000000    -0.0341063  
C284     C      0.940860000000     0.424630000000     0.945760000000     0.0755299  
C285     C      0.907970000000     0.422600000000     0.988880000000     0.105134   
C286     C      0.980250000000     0.507840000000     0.047970000000    -0.0354313  
C287     C      0.030620000000     0.520950000000     0.066800000000     0.0504439  
C288     C      0.952630000000     0.450470000000     0.993010000000     0.0559726  
H1       H      0.095360000000     0.062950000000     0.563260000000     0.028744   
H2       H      0.901420000000     0.907480000000     0.496330000000     0.0308336  
H3       H      0.053420000000     0.980850000000     0.526150000000     0.0387685  
H4       H      0.945170000000     0.987250000000     0.532970000000     0.0382168  
H5       H      0.931300000000     0.938300000000     0.527910000000     0.054757   
H6       H      0.975270000000     0.018580000000     0.565000000000     0.0387707  
H7       H      0.990590000000     0.949320000000     0.450640000000     0.0581695  
H8       H      0.065570000000     0.031990000000     0.530740000000     0.0542523  
H9       H      0.009400000000     0.015620000000     0.609930000000     0.0543369  
H10      H      0.023370000000     0.949170000000     0.494420000000     0.0377254  
H11      H      0.039540000000     0.046840000000     0.641690000000     0.0292479  
H12      H      0.983950000000     0.892440000000     0.403510000000     0.0401582  
H13      H      0.787140000000     0.804060000000     0.424290000000     0.0287107  
H14      H      0.704980000000     0.660820000000     0.634650000000     0.028764   
H15      H      0.752750000000     0.724440000000     0.472800000000     0.038542   
H16      H      0.742150000000     0.740100000000     0.587110000000     0.0381793  
H17      H      0.737560000000     0.691270000000     0.605560000000     0.0544891  
H18      H      0.774370000000     0.770980000000     0.556820000000     0.0387011  
H19      H      0.674560000000     0.695940000000     0.530960000000     0.0583424  
H20      H      0.755290000000     0.773390000000     0.454690000000     0.0538861  
H21      H      0.820510000000     0.770440000000     0.527760000000     0.0540563  
H22      H      0.720630000000     0.693570000000     0.503040000000     0.0377519  
H23      H      0.851610000000     0.801540000000     0.496870000000     0.0299297  
H24      H      0.631460000000     0.638310000000     0.535010000000     0.0415181  
H25      H      0.204960000000     0.126770000000     0.597740000000     0.0289585  
H26      H      0.291080000000     0.333170000000     0.469110000000     0.0303496  
H27      H      0.269290000000     0.197360000000     0.572760000000     0.038563   
H28      H      0.226720000000     0.263220000000     0.494410000000     0.0382671  
H29      H      0.259620000000     0.303860000000     0.500790000000     0.0547394  
H30      H      0.194340000000     0.232790000000     0.524950000000     0.0386533  
H31      H      0.318480000000     0.233570000000     0.488470000000     0.0583929  
H32      H      0.237110000000     0.156690000000     0.566770000000     0.0542005  
H33      H      0.176410000000     0.226160000000     0.577970000000     0.0538835  
H34      H      0.301660000000     0.227760000000     0.542160000000     0.0379099  
H35      H      0.144540000000     0.195440000000     0.608330000000     0.0284043  
H36      H      0.385250000000     0.260570000000     0.473250000000     0.0392889  
H37      H      0.535700000000     0.547790000000     0.639290000000     0.0282986  
H38      H      0.450070000000     0.414000000000     0.423180000000     0.0306219  
H39      H      0.470720000000     0.516490000000     0.565650000000     0.0383544  
H40      H      0.514160000000     0.441190000000     0.499080000000     0.0383282  
H41      H      0.481170000000     0.444550000000     0.453780000000     0.0549338  
H42      H      0.546220000000     0.471700000000     0.529860000000     0.0386223  
H43      H      0.422650000000     0.436200000000     0.532060000000     0.058096   
H44      H      0.503610000000     0.516280000000     0.610160000000     0.0537541  
H45      H      0.563170000000     0.520160000000     0.531780000000     0.053834   
H46      H      0.438660000000     0.485780000000     0.535000000000     0.037759   
H47      H      0.594980000000     0.551070000000     0.561860000000     0.0294181  
H48      H      0.356050000000     0.419910000000     0.503350000000     0.0386322  
H49      H      0.815850000000     0.877790000000     0.317890000000     0.0299824  
H50      H      0.675310000000     0.078340000000     0.245040000000     0.0301632  
H51      H      0.733890000000     0.926380000000     0.287270000000     0.0386978  
H52      H      0.754820000000     0.029500000000     0.280570000000     0.0383218  
H53      H      0.705300000000     0.048710000000     0.278020000000     0.0548834  
H54      H      0.786210000000     0.999240000000     0.312520000000     0.038819   
H55      H      0.704800000000     0.983730000000     0.207390000000     0.0583476  
H56      H      0.783780000000     0.907840000000     0.287030000000     0.054329   
H57      H      0.785950000000     0.970740000000     0.360440000000     0.0540042  
H58      H      0.702460000000     0.956620000000     0.255420000000     0.0378338  
H59      H      0.818410000000     0.940260000000     0.390480000000     0.0284632  
H60      H      0.644430000000     0.992890000000     0.163430000000     0.039323   
H61      H      0.389800000000     0.296100000000     0.313930000000     0.0284376  
H62      H      0.556510000000     0.123980000000     0.237080000000     0.0308278  
H63      H      0.463530000000     0.264020000000     0.251180000000     0.0382817  
H64      H      0.524640000000     0.191670000000     0.304530000000     0.0381112  
H65      H      0.524000000000     0.153300000000     0.267480000000     0.0549076  
H66      H      0.492370000000     0.221700000000     0.335490000000     0.0386141  
H67      H      0.545660000000     0.225000000000     0.209670000000     0.0581326  
H68      H      0.419870000000     0.264370000000     0.282680000000     0.0539901  
H69      H      0.488050000000     0.269970000000     0.352440000000     0.0541558  
H70      H      0.494700000000     0.232980000000     0.220060000000     0.0375933  
H71      H      0.457080000000     0.300920000000     0.383360000000     0.0293342  
H72      H      0.569280000000     0.200590000000     0.140060000000     0.040973   
H73      H      0.332820000000     0.945340000000     0.876780000000     0.0290062  
H74      H      0.153440000000     0.020250000000     0.694600000000     0.0296358  
H75      H      0.295910000000     0.995850000000     0.793830000000     0.0387712  
H76      H      0.192160000000     0.969490000000     0.775380000000     0.0379205  
H77      H      0.184110000000     0.988180000000     0.723740000000     0.0545531  
H78      H      0.223920000000     0.937190000000     0.804330000000     0.0387089  
H79      H      0.223240000000     0.059000000000     0.771490000000     0.0580646  
H80      H      0.301330000000     0.977450000000     0.847750000000     0.0540395  
H81      H      0.267180000000     0.906280000000     0.795720000000     0.0541017  
H82      H      0.264360000000     0.027980000000     0.764500000000     0.0383204  
H83      H      0.298880000000     0.874720000000     0.825400000000     0.0293285  
H84      H      0.175050000000     0.112590000000     0.769110000000     0.0404307  
H85      H      0.566240000000     0.690290000000     0.666990000000     0.0291367  
H86      H      0.422130000000     0.770910000000     0.879690000000     0.0294351  
H87      H      0.535800000000     0.750800000000     0.744050000000     0.0387491  
H88      H      0.451180000000     0.710790000000     0.802000000000     0.0378798  
H89      H      0.452570000000     0.739670000000     0.849160000000     0.0546707  
H90      H      0.482330000000     0.679310000000     0.771260000000     0.0386125  
H91      H      0.455570000000     0.801630000000     0.775360000000     0.0582604  
H92      H      0.534580000000     0.721660000000     0.696800000000     0.0540028  
H93      H      0.531890000000     0.659800000000     0.771250000000     0.0541239  
H94      H      0.504730000000     0.782260000000     0.774840000000     0.0385492  
H95      H      0.563200000000     0.628800000000     0.740560000000     0.0302687  
H96      H      0.396480000000     0.843300000000     0.782490000000     0.0398036  
H97      H      0.390130000000     0.913240000000     0.990930000000     0.0294784  
H98      H      0.598550000000     0.045090000000     0.068570000000     0.0308337  
H99      H      0.442650000000     0.991070000000     0.020170000000     0.038712   
H100     H      0.546930000000     0.966800000000     0.038680000000     0.0382021  
H101     H      0.568670000000     0.014370000000     0.036720000000     0.0550105  
H102     H      0.516570000000     0.935010000000     0.007410000000     0.0386928  
H103     H      0.497660000000     0.023650000000     0.101980000000     0.0581844  
H104     H      0.420500000000     0.944290000000     0.022540000000     0.054071   
H105     H      0.491580000000     0.932420000000     0.957210000000     0.0539968  
H106     H      0.472990000000     0.022780000000     0.051470000000     0.0377229  
H107     H      0.460700000000     0.901010000000     0.926500000000     0.028828   
H108     H      0.507260000000     0.085710000000     0.139610000000     0.0383754  
H109     H      0.927060000000     0.770370000000     0.390430000000     0.0283532  
H110     H      0.071230000000     0.689110000000     0.177970000000     0.0302139  
H111     H      0.955790000000     0.710080000000     0.312150000000     0.038515   
H112     H      0.042410000000     0.748320000000     0.256170000000     0.0382057  
H113     H      0.041000000000     0.720530000000     0.208480000000     0.0547313  
H114     H      0.012050000000     0.780230000000     0.287250000000     0.0386295  
H115     H      0.034090000000     0.657000000000     0.280340000000     0.0581529  
H116     H      0.957930000000     0.738470000000     0.360300000000     0.0538083  
H117     H      0.962880000000     0.801150000000     0.286830000000     0.0541787  
H118     H      0.986020000000     0.678190000000     0.280900000000     0.0377453  
H119     H      0.932280000000     0.832610000000     0.317770000000     0.0300462  
H120     H      0.045430000000     0.593360000000     0.246790000000     0.0406234  
H121     H      0.281050000000     0.809410000000     0.928620000000     0.029076   
H122     H      0.208430000000     0.656270000000     0.134310000000     0.029215   
H123     H      0.226210000000     0.778980000000     0.011460000000     0.0386328  
H124     H      0.265980000000     0.689250000000     0.054840000000     0.03805    
H125     H      0.240130000000     0.687690000000     0.105360000000     0.0548173  
H126     H      0.297580000000     0.719750000000     0.023410000000     0.0386137  
H127     H      0.171420000000     0.702100000000     0.038450000000     0.0583821  
H128     H      0.249860000000     0.779490000000     0.960630000000     0.0536946  
H129     H      0.322160000000     0.765520000000     0.023880000000     0.0539954  
H130     H      0.194630000000     0.748430000000     0.042780000000     0.0384143  
H131     H      0.352890000000     0.795150000000     0.990910000000     0.0294527  
H132     H      0.124980000000     0.647270000000     0.041390000000     0.0412213  
H133     H      0.175280000000     0.577590000000     0.245380000000     0.0301148  
H134     H      0.354510000000     0.429210000000     0.333710000000     0.0291633  
H135     H      0.202780000000     0.495530000000     0.295150000000     0.0388199  
H136     H      0.296330000000     0.459900000000     0.250970000000     0.0384074  
H137     H      0.325660000000     0.460920000000     0.301730000000     0.055013   
H138     H      0.266390000000     0.492940000000     0.220390000000     0.0388167  
H139     H      0.248710000000     0.411690000000     0.321590000000     0.058566   
H140     H      0.206470000000     0.545860000000     0.275370000000     0.0545422  
H141     H      0.216660000000     0.492900000000     0.193730000000     0.0542035  
H142     H      0.232740000000     0.462730000000     0.325740000000     0.0379366  
H143     H      0.185220000000     0.525060000000     0.164410000000     0.0282645  
H144     H      0.259880000000     0.377280000000     0.389370000000     0.0397993  
H145     H      0.095050000000     0.157020000000     0.752960000000     0.0284662  
H146     H      0.891670000000     0.300120000000     0.821520000000     0.0309978  
H147     H      0.047760000000     0.237570000000     0.786320000000     0.0386886  
H148     H      0.940360000000     0.221810000000     0.787580000000     0.0379512  
H149     H      0.922060000000     0.269380000000     0.790380000000     0.0546546  
H150     H      0.971430000000     0.191080000000     0.755850000000     0.03876    
H151     H      0.986850000000     0.268790000000     0.863450000000     0.0580736  
H152     H      0.064060000000     0.187200000000     0.785070000000     0.0538512  
H153     H      0.002950000000     0.194100000000     0.708410000000     0.0542808  
H154     H      0.016740000000     0.268660000000     0.817610000000     0.0377152  
H155     H      0.034410000000     0.163770000000     0.676990000000     0.0292735  
H156     H      0.978230000000     0.327980000000     0.906500000000     0.0420611  
H157     H      0.849970000000     0.295110000000     0.992360000000     0.0290994  
H158     H      0.643890000000     0.159180000000     0.068320000000     0.030286   
H159     H      0.777060000000     0.263430000000     0.056360000000     0.0387158  
H160     H      0.716240000000     0.190760000000     0.003120000000     0.0381455  
H161     H      0.673250000000     0.190630000000     0.036850000000     0.0549189  
H162     H      0.746150000000     0.222960000000     0.971820000000     0.038701   
H163     H      0.744480000000     0.181620000000     0.101900000000     0.0584479  
H164     H      0.820360000000     0.262660000000     0.023060000000     0.0538978  
H165     H      0.749660000000     0.273000000000     0.956970000000     0.0538761  
H166     H      0.747140000000     0.231330000000     0.087620000000     0.0379264  
H167     H      0.780150000000     0.305070000000     0.926550000000     0.0284484  
H168     H      0.716620000000     0.162490000000     0.171620000000     0.0409878  
H169     H      0.838140000000     0.397390000000     0.810030000000     0.0299322  
H170     H      0.666750000000     0.576210000000     0.743990000000     0.0307389  
H171     H      0.801400000000     0.475730000000     0.761680000000     0.0382226  
H172     H      0.698630000000     0.494960000000     0.792740000000     0.0386482  
H173     H      0.697590000000     0.546820000000     0.776450000000     0.0552916  
H174     H      0.728660000000     0.463970000000     0.825220000000     0.0385668  
H175     H      0.725710000000     0.500630000000     0.695120000000     0.0586357  
H176     H      0.808610000000     0.428180000000     0.777320000000     0.053697   
H177     H      0.768480000000     0.463120000000     0.860390000000     0.0537505  
H178     H      0.770900000000     0.505980000000     0.728770000000     0.0380853  
H179     H      0.797530000000     0.431140000000     0.892190000000     0.0289859  
H180     H      0.717360000000     0.544090000000     0.633160000000     0.0378869  
H181     H      0.034890000000     0.551880000000     0.138370000000     0.0278146  
H182     H      0.947480000000     0.418960000000     0.922190000000     0.0293194  
H183     H      0.970960000000     0.524860000000     0.061810000000     0.0384135  
H184     H      0.012300000000     0.447250000000     0.996970000000     0.0379148  
H185     H      0.979430000000     0.450020000000     0.951290000000     0.054525   
H186     H      0.045090000000     0.476720000000     0.028160000000     0.0384944  
H187     H      0.920640000000     0.446360000000     0.029780000000     0.0582202  
H188     H      0.002230000000     0.522410000000     0.107470000000     0.0535379  
H189     H      0.064540000000     0.524340000000     0.031480000000     0.0537625  
H190     H      0.938180000000     0.495250000000     0.030760000000     0.0383453  
H191     H      0.096890000000     0.553250000000     0.063340000000     0.0289729  
H192     H      0.880190000000     0.387410000000     0.023990000000     0.0427735  
In1      In     0.867560000000     0.357730000000     0.907380000000     2.41405    
In2      In     0.122130000000     0.605150000000     0.154900000000     2.40758    
In3      In     0.370840000000     0.854660000000     0.902940000000     2.40796    
In4      In     0.621290000000     0.102350000000     0.155160000000     2.41726    
In5      In     0.370660000000     0.353470000000     0.403520000000     2.40973    
In6      In     0.620700000000     0.605490000000     0.651360000000     2.40631    
In7      In     0.874510000000     0.856350000000     0.406580000000     2.40636    
In8      In     0.120000000000     0.108660000000     0.658980000000     2.40722    
N1       N      0.928510000000     0.909840000000     0.455200000000    -0.199279   
N2       N      0.069580000000     0.057080000000     0.604750000000    -0.19571    
N3       N      0.670960000000     0.660050000000     0.599820000000    -0.199183   
N4       N      0.821620000000     0.804950000000     0.458400000000    -0.19535    
N5       N      0.323220000000     0.300770000000     0.460150000000    -0.198504   
N6       N      0.172520000000     0.158980000000     0.605260000000    -0.196933   
N7       N      0.418110000000     0.407100000000     0.459420000000    -0.199695   
N8       N      0.567580000000     0.551660000000     0.602660000000    -0.196213   
N9       N      0.672150000000     0.048480000000     0.207080000000    -0.199605   
N10      N      0.819430000000     0.906900000000     0.356320000000    -0.195764   
N11      N      0.569740000000     0.156940000000     0.205230000000    -0.19936    
N12      N      0.421280000000     0.300730000000     0.350830000000    -0.196073   
N13      N      0.170750000000     0.058400000000     0.715170000000    -0.19918    
N14      N      0.318080000000     0.907780000000     0.853160000000    -0.195454   
N15      N      0.421270000000     0.804740000000     0.845870000000    -0.200224   
N16      N      0.566980000000     0.657360000000     0.701660000000    -0.195021   
N17      N      0.565790000000     0.052540000000     0.103840000000    -0.199387   
N18      N      0.423230000000     0.904990000000     0.956460000000    -0.19576    
N19      N      0.070210000000     0.654530000000     0.210860000000    -0.198652   
N20      N      0.927450000000     0.803700000000     0.356230000000    -0.195849   
N21      N      0.171360000000     0.660780000000     0.103600000000    -0.199319   
N22      N      0.319150000000     0.804390000000     0.957480000000    -0.195594   
N23      N      0.318660000000     0.401990000000     0.346580000000    -0.199997   
N24      N      0.177910000000     0.553490000000     0.202850000000    -0.195951   
N25      N      0.921520000000     0.303090000000     0.860360000000    -0.198758   
N26      N      0.066960000000     0.158310000000     0.712710000000    -0.195634   
N27      N      0.676560000000     0.152290000000     0.103820000000    -0.199352   
N28      N      0.817150000000     0.302420000000     0.957330000000    -0.1967     
N29      N      0.677760000000     0.555560000000     0.700620000000    -0.199436   
N30      N      0.819840000000     0.411980000000     0.853390000000    -0.195298   
N31      N      0.915420000000     0.414320000000     0.958750000000    -0.199147   
N32      N      0.068170000000     0.554650000000     0.103060000000    -0.196458   
O1       O      0.910180000000     0.333020000000     0.901920000000    -0.501253   
O2       O      0.878250000000     0.328180000000     0.866520000000    -0.498091   
O3       O      0.859700000000     0.327540000000     0.948340000000    -0.504325   
O4       O      0.876370000000     0.383370000000     0.951530000000    -0.501619   
O5       O      0.855150000000     0.377440000000     0.860350000000    -0.496834   
O6       O      0.905400000000     0.389010000000     0.913450000000    -0.50377    
O7       O      0.825200000000     0.332690000000     0.915620000000    -0.506443   
O8       O      0.832930000000     0.392230000000     0.900890000000    -0.503285   
O9       O      0.151700000000     0.566090000000     0.158680000000    -0.506017   
O10      O      0.148810000000     0.593330000000     0.198150000000    -0.497304   
O11      O      0.128950000000     0.635100000000     0.113760000000    -0.49756    
O12      O      0.110930000000     0.579840000000     0.110840000000    -0.498437   
O13      O      0.094760000000     0.612670000000     0.198820000000    -0.491862   
O14      O      0.079940000000     0.579710000000     0.147820000000    -0.507332   
O15      O      0.163940000000     0.630620000000     0.145770000000    -0.507261   
O16      O      0.097780000000     0.646260000000     0.166230000000    -0.503896   
O17      O      0.352630000000     0.898480000000     0.891270000000    -0.504378   
O18      O      0.336720000000     0.863450000000     0.864980000000    -0.492609   
O19      O      0.379430000000     0.882550000000     0.945590000000    -0.497903   
O20      O      0.363140000000     0.825990000000     0.945340000000    -0.496486   
O21      O      0.396350000000     0.846410000000     0.857820000000    -0.503129   
O22      O      0.327340000000     0.833250000000     0.914660000000    -0.502706   
O23      O      0.414540000000     0.876170000000     0.913670000000    -0.505167   
O24      O      0.395190000000     0.813570000000     0.891360000000    -0.509022   
O25      O      0.600380000000     0.145610000000     0.163590000000    -0.508581   
O26      O      0.591570000000     0.113250000000     0.196500000000    -0.495715   
O27      O      0.610010000000     0.075370000000     0.112360000000    -0.49686    
O28      O      0.632610000000     0.128910000000     0.112140000000    -0.498052   
O29      O      0.647500000000     0.090860000000     0.199040000000    -0.499593   
O30      O      0.664920000000     0.124760000000     0.147290000000    -0.5084     
O31      O      0.577380000000     0.080530000000     0.146930000000    -0.507424   
O32      O      0.645350000000     0.060530000000     0.162740000000    -0.509538   
O33      O      0.412190000000     0.327950000000     0.394700000000    -0.500412   
O34      O      0.379080000000     0.326630000000     0.359770000000    -0.505842   
O35      O      0.408700000000     0.383830000000     0.412730000000    -0.49909    
O36      O      0.362720000000     0.391230000000     0.370770000000    -0.506807   
O37      O      0.362680000000     0.310960000000     0.427570000000    -0.503608   
O38      O      0.327560000000     0.363120000000     0.378700000000    -0.501118   
O39      O      0.378920000000     0.376810000000     0.449660000000    -0.505197   
O40      O      0.332560000000     0.344070000000     0.436470000000    -0.491569   
O41      O      0.579580000000     0.577970000000     0.646470000000    -0.506907   
O42      O      0.609180000000     0.579030000000     0.608250000000    -0.496387   
O43      O      0.593240000000     0.615940000000     0.694570000000    -0.490338   
O44      O      0.645660000000     0.593350000000     0.695740000000    -0.497866   
O45      O      0.629670000000     0.632180000000     0.608050000000    -0.495964   
O46      O      0.652810000000     0.568460000000     0.655320000000    -0.506748   
O47      O      0.594570000000     0.646410000000     0.657960000000    -0.503634   
O48      O      0.661300000000     0.633240000000     0.644180000000    -0.507132   
O49      O      0.915730000000     0.883420000000     0.411250000000    -0.506916   
O50      O      0.886910000000     0.882120000000     0.449890000000    -0.49686    
O51      O      0.846460000000     0.866010000000     0.363650000000    -0.495613   
O52      O      0.902040000000     0.845560000000     0.363520000000    -0.494247   
O53      O      0.864330000000     0.830220000000     0.450320000000    -0.492066   
O54      O      0.899940000000     0.814960000000     0.399910000000    -0.506581   
O55      O      0.847580000000     0.896830000000     0.399910000000    -0.506256   
O56      O      0.832220000000     0.831470000000     0.414340000000    -0.505711   
O57      O      0.160930000000     0.116590000000     0.629390000000    -0.503193   
O58      O      0.130810000000     0.150540000000     0.634420000000    -0.507273   
O59      O      0.155390000000     0.102130000000     0.696010000000    -0.495222   
O60      O      0.108260000000     0.130910000000     0.704830000000    -0.500284   
O61      O      0.108520000000     0.087640000000     0.612370000000    -0.50499    
O62      O      0.078920000000     0.135470000000     0.666580000000    -0.497675   
O63      O      0.134360000000     0.065600000000     0.678230000000    -0.504904   
O64      O      0.081450000000     0.078630000000     0.651650000000    -0.498036   
S1       S      0.965960000000     0.915700000000     0.404020000000    -0.0311151  
S2       S      0.628750000000     0.662450000000     0.552650000000    -0.0280296  
S3       S      0.363110000000     0.256570000000     0.452040000000    -0.0294163  
S4       S      0.378520000000     0.401260000000     0.508700000000    -0.0309113  
S5       S      0.670400000000     0.007170000000     0.160320000000    -0.0298891  
S6       S      0.585410000000     0.202470000000     0.167040000000    -0.0328696  
S7       S      0.194240000000     0.105430000000     0.745760000000    -0.0287839  
S8       S      0.422010000000     0.846010000000     0.799070000000    -0.0303022  
S9       S      0.520460000000     0.060420000000     0.146760000000    -0.0303465  
S10      S      0.066600000000     0.612110000000     0.256220000000    -0.0280822  
S11      S      0.125390000000     0.669760000000     0.061710000000    -0.0287806  
S12      S      0.269720000000     0.368870000000     0.360520000000    -0.0289188  
S13      S      0.962200000000     0.303500000000     0.909040000000    -0.0317598  
S14      S      0.721910000000     0.144820000000     0.146780000000    -0.031473   
S15      S      0.695950000000     0.527680000000     0.646470000000    -0.0310132  
S16      S      0.875350000000     0.412170000000     0.007990000000    -0.0303486  


