data_structure

_audit_creation_method RASPA-1.0
_audit_creation_date 2023-5-22
_audit_author_name 'Poobodin Mano'

_cell_length_a    40.9515
_cell_length_b    45.8763
_cell_length_c    48.3325
_cell_angle_alpha 90
_cell_angle_beta  90
_cell_angle_gamma 90
_cell_volume      90802.4

_symmetry_cell_setting          triclinic
_symmetry_space_group_name_Hall 'P 1'
_symmetry_space_group_name_H-M  'P 1'
_symmetry_Int_Tables_number     1

_symmetry_equiv_pos_as_xyz 'x,y,z'

loop_
_atom_site_label
_atom_site_type_symbol
_atom_site_fract_x
_atom_site_fract_y
_atom_site_fract_z
_atom_site_charge
C1       C      0.953660000000     0.402310000000     0.879810000000     0.419356   
C2       C      0.879460000000     0.402010000000     0.808390000000     0.428767   
C3       C      0.954580000000     0.337840000000     0.809540000000     0.414582   
C4       C      0.880050000000     0.337530000000     0.877510000000     0.423606   
C5       C      0.145740000000     0.578690000000     0.055930000000     0.41821    
C6       C      0.211530000000     0.579570000000     0.129630000000     0.416669   
C7       C      0.218530000000     0.645460000000     0.058850000000     0.41831    
C8       C      0.144060000000     0.646350000000     0.126390000000     0.42355    
C9       C      0.393440000000     0.830280000000     0.876780000000     0.412864   
C10      C      0.391800000000     0.901650000000     0.808410000000     0.417018   
C11      C      0.459870000000     0.897370000000     0.880460000000     0.412608   
C12      C      0.462110000000     0.837000000000     0.804010000000     0.411044   
C13      C      0.705090000000     0.152230000000     0.059520000000     0.419355   
C14      C      0.640390000000     0.076110000000     0.063860000000     0.411798   
C15      C      0.710890000000     0.080740000000     0.127620000000     0.423134   
C16      C      0.638450000000     0.149290000000     0.129240000000     0.39578    
C17      C      0.393120000000     0.398610000000     0.310300000000     0.41844    
C18      C      0.462990000000     0.332420000000     0.311760000000     0.419267   
C19      C      0.465380000000     0.402970000000     0.379000000000     0.421889   
C20      C      0.393860000000     0.334130000000     0.382480000000     0.418373   
C21      C      0.710880000000     0.586710000000     0.622140000000     0.409526   
C22      C      0.649460000000     0.666330000000     0.618930000000     0.415698   
C23      C      0.719920000000     0.659020000000     0.556340000000     0.397833   
C24      C      0.645870000000     0.587240000000     0.557390000000     0.419513   
C25      C      0.972180000000     0.834050000000     0.307110000000     0.417876   
C26      C      0.905560000000     0.906630000000     0.305250000000     0.415789   
C27      C      0.905450000000     0.837150000000     0.377080000000     0.414088   
C28      C      0.969650000000     0.909890000000     0.373430000000     0.419963   
C29      C      0.139410000000     0.158760000000     0.630190000000     0.396132   
C30      C      0.208330000000     0.083010000000     0.629230000000     0.416143   
C31      C      0.141950000000     0.086180000000     0.564080000000     0.410329   
C32      C      0.209180000000     0.161850000000     0.568000000000     0.414265   
C33      C      0.032940000000     0.956790000000     0.405170000000    -0.0765557  
C34      C      0.093350000000     0.060490000000     0.552750000000     0.0774502  
C35      C      0.138220000000     0.060200000000     0.521740000000     0.0782676  
C36      C      0.074910000000     0.043720000000     0.534350000000    -0.0929946  
C37      C      0.048640000000     0.995080000000     0.497520000000    -0.032075   
C38      C      0.031230000000     0.978430000000     0.478280000000    -0.0335664  
C39      C      0.068940000000     0.018010000000     0.488700000000    -0.0051009  
C40      C      0.120500000000     0.043450000000     0.502880000000    -0.0931507  
C41      C      0.033780000000     0.984320000000     0.449820000000    -0.00161298 
C42      C      0.984690000000     0.956600000000     0.433280000000    -0.0887721  
C43      C      0.053530000000     0.007620000000     0.441080000000    -0.0331332  
C44      C      0.969590000000     0.938650000000     0.413830000000     0.0785476  
C45      C      0.017290000000     0.938970000000     0.385640000000     0.0594047  
C46      C      0.070890000000     0.024260000000     0.460280000000    -0.0309532  
C47      C      0.088340000000     0.035200000000     0.508940000000     0.053291   
C48      C      0.016830000000     0.965680000000     0.429190000000     0.0500684  
C49      C      0.744350000000     0.706870000000     0.499660000000    -0.0765281  
C50      C      0.904670000000     0.803050000000     0.414140000000     0.0773511  
C51      C      0.854990000000     0.820270000000     0.395000000000     0.0783283  
C52      C      0.887500000000     0.785840000000     0.433090000000    -0.092597   
C53      C      0.845970000000     0.739650000000     0.460830000000    -0.0319439  
C54      C      0.827680000000     0.722100000000     0.478710000000    -0.0342694  
C55      C      0.834280000000     0.767170000000     0.452550000000    -0.00520716 
C56      C      0.837090000000     0.803030000000     0.413300000000    -0.0927918  
C57      C      0.797120000000     0.731490000000     0.488360000000    -0.00183501 
C58      C      0.790500000000     0.699400000000     0.529900000000    -0.0891626  
C59      C      0.785470000000     0.758970000000     0.480360000000    -0.0342355  
C60      C      0.771120000000     0.681520000000     0.546580000000     0.0771819  
C61      C      0.725910000000     0.688410000000     0.516530000000     0.0563314  
C62      C      0.803950000000     0.776730000000     0.462880000000    -0.0317136  
C63      C      0.853220000000     0.785600000000     0.432830000000     0.0527887  
C64      C      0.777060000000     0.712420000000     0.506290000000     0.0477052  
C65      C      0.360720000000     0.271850000000     0.422340000000    -0.0779311  
C66      C      0.213230000000     0.192460000000     0.528530000000     0.0788407  
C67      C      0.257940000000     0.188470000000     0.559460000000     0.0796008  
C68      C      0.231210000000     0.210990000000     0.511400000000    -0.0927596  
C69      C      0.269560000000     0.260660000000     0.485630000000    -0.0322941  
C70      C      0.288010000000     0.277060000000     0.466920000000    -0.0334914  
C71      C      0.283470000000     0.236730000000     0.499500000000    -0.00492644 
C72      C      0.276620000000     0.206980000000     0.542830000000    -0.0923867  
C73      C      0.320810000000     0.269920000000     0.461620000000    -0.00233069 
C74      C      0.337330000000     0.316650000000     0.438500000000    -0.0894239  
C75      C      0.334890000000     0.246370000000     0.475910000000    -0.0334836  
C76      C      0.355360000000     0.331620000000     0.418590000000     0.0749845  
C77      C      0.378500000000     0.287210000000     0.402190000000     0.0547608  
C78      C      0.316450000000     0.229960000000     0.494590000000    -0.0316989  
C79      C      0.263440000000     0.218270000000     0.518290000000     0.0533262  
C80      C      0.340030000000     0.286430000000     0.440700000000     0.0483476  
C81      C      0.500840000000     0.468590000000     0.411810000000    -0.0780003  
C82      C      0.643250000000     0.553230000000     0.520440000000     0.080911   
C83      C      0.595510000000     0.564420000000     0.546080000000     0.0805561  
C84      C      0.625610000000     0.534200000000     0.503570000000    -0.0922738  
C85      C      0.586010000000     0.484080000000     0.480250000000    -0.032098   
C86      C      0.568310000000     0.466180000000     0.462270000000    -0.0332441  
C87      C      0.572780000000     0.510560000000     0.489710000000    -0.00457876 
C88      C      0.577120000000     0.545490000000     0.529640000000    -0.0923281  
C89      C      0.536930000000     0.474320000000     0.453350000000    -0.00214663 
C90      C      0.518990000000     0.425520000000     0.435400000000    -0.0894435  
C91      C      0.523500000000     0.500560000000     0.463170000000    -0.0331238  
C92      C      0.501530000000     0.408680000000     0.416500000000     0.0755232  
C93      C      0.483660000000     0.451290000000     0.392750000000     0.0554557  
C94      C      0.541220000000     0.518480000000     0.481080000000    -0.0312759  
C95      C      0.592080000000     0.530180000000     0.507970000000     0.0542018  
C96      C      0.518520000000     0.455860000000     0.433400000000     0.0486984  
C97      C      0.879400000000     0.969140000000     0.261950000000    -0.0774156  
C98      C      0.720280000000     0.058260000000     0.171140000000     0.0819265  
C99      C      0.758170000000     0.051680000000     0.134590000000     0.0847348  
C100     C      0.739500000000     0.041250000000     0.188710000000    -0.0920694  
C101     C      0.775320000000     0.992240000000     0.217320000000    -0.0314609  
C102     C      0.794830000000     0.975470000000     0.234880000000    -0.0331362  
C103     C      0.789510000000     0.010740000000     0.197470000000    -0.00413496 
C104     C      0.777770000000     0.034250000000     0.151480000000    -0.0914163  
C105     C      0.829080000000     0.976430000000     0.232860000000    -0.0015222  
C106     C      0.840020000000     0.930550000000     0.259500000000    -0.0890769  
C107     C      0.843290000000     0.994750000000     0.212870000000    -0.0330587  
C108     C      0.859240000000     0.914200000000     0.277460000000     0.0759429  
C109     C      0.898720000000     0.952240000000     0.279900000000     0.0552507  
C110     C      0.823780000000     0.011790000000     0.195520000000    -0.0306805  
C111     C      0.768680000000     0.028930000000     0.179000000000     0.0550741  
C112     C      0.849820000000     0.958440000000     0.251590000000     0.0487622  
C113     C      0.619230000000     0.209060000000     0.176440000000    -0.076168   
C114     C      0.464130000000     0.293380000000     0.279530000000     0.0829898  
C115     C      0.513060000000     0.318410000000     0.290730000000     0.0812496  
C116     C      0.481070000000     0.275140000000     0.261400000000    -0.091728   
C117     C      0.527460000000     0.229400000000     0.238080000000    -0.032088   
C118     C      0.544680000000     0.211350000000     0.219920000000    -0.0330552  
C119     C      0.533080000000     0.259600000000     0.238390000000    -0.00446785 
C120     C      0.530720000000     0.300720000000     0.272570000000    -0.0922312  
C121     C      0.567760000000     0.223120000000     0.201480000000    -0.0016636  
C122     C      0.570930000000     0.179850000000     0.169610000000    -0.0884552  
C123     C      0.573270000000     0.253390000000     0.201760000000    -0.0331987  
C124     C      0.588690000000     0.161620000000     0.152010000000     0.0765023  
C125     C      0.636170000000     0.190420000000     0.158620000000     0.053695   
C126     C      0.556210000000     0.271400000000     0.220080000000    -0.0321361  
C127     C      0.514750000000     0.278730000000     0.257690000000     0.0545104  
C128     C      0.586160000000     0.203850000000     0.182200000000     0.0469935  
C129     C      0.363080000000     0.965610000000     0.768530000000    -0.0779286  
C130     C      0.213200000000     0.055190000000     0.670470000000     0.0792765  
C131     C      0.254990000000     0.053230000000     0.636580000000     0.0786768  
C132     C      0.230770000000     0.036330000000     0.687580000000    -0.09208    
C133     C      0.265570000000     0.985040000000     0.713940000000    -0.032355   
C134     C      0.283880000000     0.967620000000     0.731910000000    -0.0334892  
C135     C      0.280830000000     0.006330000000     0.697460000000    -0.00467817 
C136     C      0.273140000000     0.034190000000     0.653090000000    -0.0925585  
C137     C      0.317950000000     0.970970000000     0.733780000000    -0.00221632 
C138     C      0.330070000000     0.923830000000     0.758140000000    -0.089338   
C139     C      0.333260000000     0.991920000000     0.716950000000    -0.0334327  
C140     C      0.348440000000     0.907610000000     0.776920000000     0.0747511  
C141     C      0.381240000000     0.949010000000     0.787530000000     0.0548927  
C142     C      0.314940000000     0.009430000000     0.699110000000    -0.0314024  
C143     C      0.261260000000     0.025660000000     0.679080000000     0.0532291  
C144     C      0.337390000000     0.953150000000     0.753590000000     0.0482574  
C145     C      0.591250000000     0.722730000000     0.642480000000    -0.0773034  
C146     C      0.510710000000     0.831620000000     0.777640000000     0.0776053  
C147     C      0.468210000000     0.796790000000     0.773500000000     0.0775211  
C148     C      0.529790000000     0.816160000000     0.758700000000    -0.0926013  
C149     C      0.571850000000     0.769760000000     0.731570000000    -0.0324338  
C150     C      0.590720000000     0.753190000000     0.713310000000    -0.0336549  
C151     C      0.538110000000     0.773170000000     0.727210000000    -0.00516673 
C152     C      0.486650000000     0.780760000000     0.754550000000    -0.0931544  
C153     C      0.576320000000     0.739600000000     0.690260000000    -0.00226191 
C154     C      0.620550000000     0.703040000000     0.681210000000    -0.0893147  
C155     C      0.542620000000     0.743180000000     0.685800000000    -0.0336795  
C156     C      0.638460000000     0.685710000000     0.663050000000     0.0753578  
C157     C      0.609880000000     0.705380000000     0.624440000000     0.0543307  
C158     C      0.523760000000     0.759770000000     0.704040000000    -0.0320618  
C159     C      0.517910000000     0.790300000000     0.746970000000     0.0526879  
C160     C      0.596260000000     0.721520000000     0.671090000000     0.0480837  
C161     C      0.617430000000     0.011970000000     0.021480000000    -0.0764002  
C162     C      0.463240000000     0.938510000000     0.910130000000     0.0811607  
C163     C      0.507740000000     0.905570000000     0.907160000000     0.0794415  
C164     C      0.480500000000     0.955870000000     0.928800000000    -0.0913891  
C165     C      0.531020000000     0.996930000000     0.953470000000    -0.0321905  
C166     C      0.548960000000     0.014400000000     0.971630000000    -0.0330379  
C167     C      0.531030000000     0.966440000000     0.956340000000    -0.00462201 
C168     C      0.525630000000     0.922340000000     0.925950000000    -0.0923369  
C169     C      0.567230000000     0.001820000000     0.993180000000    -0.00173546 
C170     C      0.573950000000     0.046980000000     0.021820000000    -0.0888541  
C171     C      0.567120000000     0.971300000000     0.996100000000    -0.0336799  
C172     C      0.592500000000     0.064550000000     0.039280000000     0.0748363  
C173     C      0.635660000000     0.029740000000     0.039470000000     0.0536996  
C174     C      0.549300000000     0.953820000000     0.977840000000    -0.0317131  
C175     C      0.512120000000     0.947930000000     0.936870000000     0.0538838  
C176     C      0.586440000000     0.020490000000     0.012410000000     0.0478536  
C177     C      0.038570000000     0.793780000000     0.271870000000    -0.0775184  
C178     C      0.092820000000     0.661900000000     0.144200000000     0.0827675  
C179     C      0.141940000000     0.681600000000     0.162250000000     0.0839636  
C180     C      0.074410000000     0.679010000000     0.162350000000    -0.0923197  
C181     C      0.042970000000     0.731000000000     0.191390000000    -0.0317851  
C182     C      0.026110000000     0.749600000000     0.209330000000    -0.0330075  
C183     C      0.071190000000     0.716300000000     0.200340000000    -0.00451274 
C184     C      0.124340000000     0.698900000000     0.180710000000    -0.0926443  
C185     C      0.037090000000     0.753860000000     0.236600000000    -0.00192441 
C186     C      0.986430000000     0.776910000000     0.255930000000    -0.0892232  
C187     C      0.064840000000     0.738590000000     0.245710000000    -0.0328807  
C188     C      0.971380000000     0.797110000000     0.273280000000     0.0749424  
C189     C      0.023050000000     0.814290000000     0.288970000000     0.0547298  
C190     C      0.081700000000     0.720060000000     0.227790000000    -0.0309651  
C191     C      0.090160000000     0.697760000000     0.180940000000     0.0555726  
C192     C      0.020390000000     0.774910000000     0.255210000000     0.0489324  
C193     C      0.285050000000     0.671820000000     0.013210000000    -0.0776428  
C194     C      0.346370000000     0.819740000000     0.903740000000     0.0773914  
C195     C      0.390520000000     0.786300000000     0.902600000000     0.0775201  
C196     C      0.329200000000     0.801600000000     0.921830000000    -0.0932965  
C197     C      0.308660000000     0.767140000000     0.972790000000    -0.0325514  
C198     C      0.291860000000     0.748810000000     0.990970000000    -0.0335681  
C199     C      0.325090000000     0.755620000000     0.949730000000    -0.00539783 
C200     C      0.373940000000     0.767550000000     0.920530000000    -0.0933475  
C201     C      0.290930000000     0.718530000000     0.986450000000    -0.00232973 
C202     C      0.242750000000     0.707780000000     0.016720000000    -0.08961    
C203     C      0.307410000000     0.707030000000     0.963370000000    -0.0336875  
C204     C      0.225870000000     0.689430000000     0.034640000000     0.0753482  
C205     C      0.267760000000     0.653560000000     0.031460000000     0.0541821  
C206     C      0.324370000000     0.725350000000     0.945260000000    -0.0322069  
C207     C      0.342940000000     0.775140000000     0.930430000000     0.0528411  
C208     C      0.272640000000     0.699080000000     0.005650000000     0.0481989  
C209     C      0.230480000000     0.528330000000     0.186610000000    -0.0774265  
C210     C      0.390770000000     0.431720000000     0.272630000000     0.0835392  
C211     C      0.341840000000     0.415980000000     0.294190000000     0.0812065  
C212     C      0.373100000000     0.449440000000     0.254560000000    -0.0917564  
C213     C      0.331320000000     0.497920000000     0.230970000000    -0.0312119  
C214     C      0.313390000000     0.516060000000     0.213410000000    -0.0325795  
C215     C      0.319870000000     0.469890000000     0.237670000000    -0.00426478 
C216     C      0.323370000000     0.433500000000     0.276450000000    -0.0920503  
C217     C      0.283550000000     0.506640000000     0.202180000000    -0.00144063 
C218     C      0.279690000000     0.542700000000     0.163400000000    -0.0868354  
C219     C      0.272080000000     0.478620000000     0.208860000000    -0.0330298  
C220     C      0.261260000000     0.560630000000     0.146160000000     0.0763884  
C221     C      0.212280000000     0.546860000000     0.169340000000     0.0562496  
C222     C      0.290040000000     0.460450000000     0.226390000000    -0.0313938  
C223     C      0.338980000000     0.450640000000     0.256400000000     0.0549165  
C224     C      0.264330000000     0.526050000000     0.183720000000     0.0491445  
C225     C      0.119630000000     0.210500000000     0.685150000000    -0.0766828  
C226     C      0.973330000000     0.291370000000     0.794930000000     0.0803758  
C227     C      0.991560000000     0.333970000000     0.771830000000     0.0809298  
C228     C      0.991830000000     0.273910000000     0.777210000000    -0.0924256  
C229     C      0.017130000000     0.241850000000     0.726930000000    -0.0319759  
C230     C      0.035290000000     0.224410000000     0.708940000000    -0.0336126  
C231     C      0.029840000000     0.268340000000     0.736810000000    -0.00493219 
C232     C      0.010280000000     0.317160000000     0.753680000000    -0.0926327  
C233     C      0.066590000000     0.233070000000     0.700250000000    -0.0018785  
C234     C      0.070660000000     0.199340000000     0.659490000000    -0.0890375  
C235     C      0.079290000000     0.259620000000     0.710020000000    -0.0338418  
C236     C      0.088820000000     0.180840000000     0.642480000000     0.0763173  
C237     C      0.137010000000     0.191810000000     0.667660000000     0.0538245  
C238     C      0.061130000000     0.277050000000     0.728100000000    -0.032152   
C239     C      0.010500000000     0.286710000000     0.756160000000     0.0539991  
C240     C      0.085930000000     0.214250000000     0.681280000000     0.0467815  
C241     C      0.812960000000     0.309920000000     0.921720000000    -0.0774034  
C242     C      0.747850000000     0.185870000000     0.050700000000     0.0820309  
C243     C      0.710500000000     0.173740000000     0.015040000000     0.0795934  
C244     C      0.764710000000     0.204470000000     0.032860000000    -0.0914242  
C245     C      0.807030000000     0.229210000000     0.987560000000    -0.0314412  
C246     C      0.824170000000     0.247490000000     0.969590000000    -0.0323645  
C247     C      0.772850000000     0.226740000000     0.985810000000    -0.00396463 
C248     C      0.727050000000     0.191870000000     0.996520000000    -0.0918569  
C249     C      0.807690000000     0.263530000000     0.949100000000    -0.00145164 
C250     C      0.857110000000     0.275580000000     0.920600000000    -0.089197   
C251     C      0.773540000000     0.260840000000     0.947140000000    -0.0325266  
C252     C      0.874340000000     0.294480000000     0.903430000000     0.0798011  
C253     C      0.830640000000     0.328720000000     0.904290000000     0.0610394  
C254     C      0.756340000000     0.242820000000     0.965340000000    -0.0309318  
C255     C      0.754600000000     0.207520000000     0.005280000000     0.0540779  
C256     C      0.826060000000     0.283160000000     0.930070000000     0.050856   
C257     C      0.822910000000     0.424200000000     0.752280000000    -0.0773962  
C258     C      0.758400000000     0.560370000000     0.635050000000     0.0778581  
C259     C      0.710070000000     0.556110000000     0.661780000000     0.0779775  
C260     C      0.774820000000     0.541530000000     0.652970000000    -0.0931493  
C261     C      0.808550000000     0.516120000000     0.703200000000    -0.0321962  
C262     C      0.824890000000     0.497970000000     0.721810000000    -0.0336602  
C263     C      0.776000000000     0.510400000000     0.695690000000    -0.00530554 
C264     C      0.725780000000     0.537280000000     0.680170000000    -0.0932723  
C265     C      0.809080000000     0.473700000000     0.733460000000    -0.00187423 
C266     C      0.847160000000     0.466260000000     0.773360000000    -0.0889436  
C267     C      0.776530000000     0.467960000000     0.725970000000    -0.0333861  
C268     C      0.863940000000     0.448010000000     0.791420000000     0.0782725  
C269     C      0.839810000000     0.406020000000     0.770830000000     0.057455   
C270     C      0.760190000000     0.486080000000     0.707290000000    -0.0314479  
C271     C      0.758620000000     0.529860000000     0.675980000000     0.0530893  
C272     C      0.826560000000     0.454470000000     0.753320000000     0.0495016  
C273     C      0.980030000000     0.445730000000     0.940320000000    -0.076972   
C274     C      0.108250000000     0.573810000000     0.018690000000     0.0791346  
C275     C      0.130520000000     0.531680000000     0.039990000000     0.0801728  
C276     C      0.089850000000     0.556480000000     0.000750000000    -0.0934809  
C277     C      0.069100000000     0.513020000000     0.956030000000    -0.0322999  
C278     C      0.049960000000     0.495320000000     0.938950000000    -0.0338725  
C279     C      0.071380000000     0.507270000000     0.984520000000    -0.00540344 
C280     C      0.112230000000     0.513710000000     0.022590000000    -0.0931471  
C281     C      0.032440000000     0.471750000000     0.950100000000    -0.00222482 
C282     C      0.023310000000     0.442800000000     0.906950000000    -0.089835   
C283     C      0.034710000000     0.466030000000     0.978600000000    -0.0336533  
C284     C      0.003440000000     0.425360000000     0.890420000000     0.0746398  
C285     C      0.960330000000     0.428060000000     0.923440000000     0.0547469  
C286     C      0.054100000000     0.483530000000     0.995610000000    -0.0313421  
C287     C      0.091530000000     0.526060000000     0.002740000000     0.0540089  
C288     C      0.011620000000     0.453280000000     0.932140000000     0.0483181  
H1       H      0.162960000000     0.066270000000     0.516190000000     0.0323589  
H2       H      0.944750000000     0.931920000000     0.418280000000     0.0342425  
H3       H      0.085740000000     0.042150000000     0.452830000000     0.0434957  
H4       H      0.016470000000     0.960430000000     0.485630000000     0.0423721  
H5       H      0.971160000000     0.963380000000     0.451440000000     0.0573531  
H6       H      0.046840000000     0.989520000000     0.519250000000     0.0410648  
H7       H      0.057950000000     0.963580000000     0.401840000000     0.0687841  
H8       H      0.132070000000     0.036900000000     0.483710000000     0.0587736  
H9       H      0.050060000000     0.038010000000     0.539790000000     0.0570029  
H10      H      0.055530000000     0.013070000000     0.419340000000     0.0474     
H11      H      0.081990000000     0.066970000000     0.572060000000     0.0324003  
H12      H      0.010520000000     0.958750000000     0.328240000000     0.164958   
H13      H      0.841510000000     0.833410000000     0.380250000000     0.0336003  
H14      H      0.782080000000     0.671990000000     0.564890000000     0.0325299  
H15      H      0.794430000000     0.798020000000     0.457580000000     0.0416948  
H16      H      0.837050000000     0.700850000000     0.484420000000     0.043061   
H17      H      0.815690000000     0.703340000000     0.535630000000     0.0567445  
H18      H      0.868900000000     0.731270000000     0.453020000000     0.0409913  
H19      H      0.733520000000     0.716250000000     0.481240000000     0.0602094  
H20      H      0.810720000000     0.803150000000     0.411770000000     0.0576972  
H21      H      0.901120000000     0.773140000000     0.448020000000     0.0564821  
H22      H      0.762130000000     0.766840000000     0.487830000000     0.0439672  
H23      H      0.931130000000     0.802680000000     0.414990000000     0.0314147  
H24      H      0.666900000000     0.723050000000     0.507340000000     0.151222   
H25      H      0.269090000000     0.179980000000     0.578150000000     0.0354171  
H26      H      0.352650000000     0.355140000000     0.418140000000     0.0335552  
H27      H      0.327880000000     0.211520000000     0.504680000000     0.0424818  
H28      H      0.276320000000     0.294920000000     0.456120000000     0.0425614  
H29      H      0.321730000000     0.328850000000     0.452400000000     0.05627    
H30      H      0.244340000000     0.266690000000     0.489170000000     0.041429   
H31      H      0.362300000000     0.248320000000     0.423330000000     0.0662096  
H32      H      0.301240000000     0.212390000000     0.549200000000     0.0581456  
H33      H      0.220130000000     0.218900000000     0.492490000000     0.0577962  
H34      H      0.360220000000     0.240520000000     0.472590000000     0.0433698  
H35      H      0.188550000000     0.187020000000     0.522250000000     0.0319764  
H36      H      0.446060000000     0.264750000000     0.402420000000     0.149323   
H37      H      0.583050000000     0.575930000000     0.562590000000     0.0338109  
H38      H      0.502230000000     0.385240000000     0.419400000000     0.0330391  
H39      H      0.530380000000     0.538840000000     0.487730000000     0.0438078  
H40      H      0.579510000000     0.446240000000     0.454940000000     0.0428282  
H41      H      0.532260000000     0.414730000000     0.451860000000     0.0563242  
H42      H      0.610090000000     0.477120000000     0.486750000000     0.0414563  
H43      H      0.501160000000     0.492050000000     0.409480000000     0.0665171  
H44      H      0.551370000000     0.542760000000     0.534060000000     0.0578078  
H45      H      0.638120000000     0.523180000000     0.486830000000     0.0591434  
H46      H      0.499220000000     0.507310000000     0.457010000000     0.0436544  
H47      H      0.669090000000     0.555900000000     0.516210000000     0.0336136  
H48      H      0.419510000000     0.479620000000     0.384840000000     0.149424   
H49      H      0.766080000000     0.055300000000     0.113450000000     0.0392685  
H50      H      0.850300000000     0.892650000000     0.282730000000     0.0356343  
H51      H      0.835660000000     0.026040000000     0.180770000000     0.0433654  
H52      H      0.782960000000     0.961960000000     0.250250000000     0.0426527  
H53      H      0.817650000000     0.921060000000     0.251640000000     0.0569354  
H54      H      0.749050000000     0.990480000000     0.219220000000     0.0420927  
H55      H      0.887030000000     0.990950000000     0.256450000000     0.0668353  
H56      H      0.799740000000     0.024790000000     0.142830000000     0.0602837  
H57      H      0.731670000000     0.038210000000     0.209920000000     0.0584564  
H58      H      0.869540000000     0.995790000000     0.210410000000     0.044781   
H59      H      0.697970000000     0.067470000000     0.179490000000     0.0327059  
H60      H      0.966890000000     0.952300000000     0.260130000000     0.152625   
H61      H      0.526270000000     0.335120000000     0.301980000000     0.0345316  
H62      H      0.576160000000     0.143300000000     0.142630000000     0.0328736  
H63      H      0.560740000000     0.294660000000     0.219590000000     0.0428794  
H64      H      0.540230000000     0.188100000000     0.220680000000     0.0431078  
H65      H      0.545310000000     0.175280000000     0.173060000000     0.0564953  
H66      H      0.510100000000     0.219620000000     0.252220000000     0.0445847  
H67      H      0.632020000000     0.227050000000     0.186100000000     0.059262   
H68      H      0.556800000000     0.304000000000     0.270490000000     0.0594645  
H69      H      0.467760000000     0.258590000000     0.250070000000     0.0601444  
H70      H      0.590450000000     0.263290000000     0.187560000000     0.0423651  
H71      H      0.438050000000     0.289990000000     0.281740000000     0.039944   
H72      H      0.673060000000     0.238420000000     0.133590000000     0.148319   
H73      H      0.265120000000     0.059430000000     0.616710000000     0.0323405  
H74      H      0.341970000000     0.884820000000     0.779260000000     0.0326597  
H75      H      0.327530000000     0.025790000000     0.686980000000     0.0427848  
H76      H      0.271210000000     0.951910000000     0.744730000000     0.0420708  
H77      H      0.310540000000     0.913180000000     0.746910000000     0.0557349  
H78      H      0.239400000000     0.981760000000     0.712960000000     0.0408918  
H79      H      0.368380000000     0.988540000000     0.765860000000     0.0660853  
H80      H      0.296280000000     0.026130000000     0.645420000000     0.0573039  
H81      H      0.220780000000     0.030700000000     0.707630000000     0.0583226  
H82      H      0.359500000000     0.994830000000     0.717550000000     0.0434066  
H83      H      0.189880000000     0.063180000000     0.677930000000     0.0335377  
H84      H      0.450780000000     0.963000000000     0.778390000000     0.149216   
H85      H      0.444250000000     0.788550000000     0.778980000000     0.0312272  
H86      H      0.656390000000     0.671180000000     0.672160000000     0.0334813  
H87      H      0.497920000000     0.762220000000     0.699880000000     0.0415442  
H88      H      0.616670000000     0.751180000000     0.717190000000     0.0422031  
H89      H      0.625220000000     0.701300000000     0.703210000000     0.0560802  
H90      H      0.583650000000     0.779510000000     0.749350000000     0.0414705  
H91      H      0.573350000000     0.737770000000     0.634240000000     0.0651105  
H92      H      0.476630000000     0.760710000000     0.746310000000     0.0566116  
H93      H      0.553610000000     0.824590000000     0.753150000000     0.0577512  
H94      H      0.530680000000     0.732780000000     0.668420000000     0.0430097  
H95      H      0.520780000000     0.851490000000     0.786290000000     0.0338343  
H96      H      0.563430000000     0.683500000000     0.582600000000     0.149444   
H97      H      0.519120000000     0.886060000000     0.898940000000     0.0328644  
H98      H      0.581610000000     0.085050000000     0.045580000000     0.0357372  
H99      H      0.549440000000     0.930410000000     0.980800000000     0.0423999  
H100     H      0.548920000000     0.037770000000     0.968470000000     0.0432621  
H101     H      0.549780000000     0.054200000000     0.015810000000     0.0566821  
H102     H      0.517570000000     0.007280000000     0.936860000000     0.0446097  
H103     H      0.627500000000     0.991540000000     0.014240000000     0.0667376  
H104     H      0.550120000000     0.915560000000     0.931460000000     0.0586112  
H105     H      0.469010000000     0.975290000000     0.937030000000     0.0599689  
H106     H      0.580460000000     0.960900000000     0.012730000000     0.0446085  
H107     H      0.438850000000     0.945430000000     0.904350000000     0.0412608  
H108     H      0.656650000000     0.003750000000     0.092040000000     0.147889   
H109     H      0.168360000000     0.683190000000     0.162680000000     0.0349621  
H110     H      0.944890000000     0.797370000000     0.273310000000     0.0326346  
H111     H      0.102990000000     0.708620000000     0.235460000000     0.0448378  
H112     H      0.005050000000     0.761300000000     0.201560000000     0.0430195  
H113     H      0.971400000000     0.762620000000     0.243430000000     0.0566836  
H114     H      0.034450000000     0.728810000000     0.170280000000     0.0421087  
H115     H      0.064960000000     0.793020000000     0.270850000000     0.0668233  
H116     H      0.137480000000     0.713410000000     0.194440000000     0.0603634  
H117     H      0.048030000000     0.677280000000     0.162020000000     0.0590759  
H118     H      0.073560000000     0.740970000000     0.266740000000     0.0445774  
H119     H      0.079810000000     0.647550000000     0.130190000000     0.0342674  
H120     H      0.055990000000     0.813240000000     0.343320000000     0.148744   
H121     H      0.414540000000     0.779740000000     0.895510000000     0.0315707  
H122     H      0.202560000000     0.697300000000     0.042250000000     0.0334813  
H123     H      0.336460000000     0.715870000000     0.927480000000     0.0418215  
H124     H      0.279940000000     0.758380000000     0.008790000000     0.0425467  
H125     H      0.231990000000     0.728560000000     0.011230000000     0.0560406  
H126     H      0.309190000000     0.790320000000     0.977020000000     0.0417468  
H127     H      0.308590000000     0.665110000000     0.005300000000     0.0658147  
H128     H      0.385580000000     0.747440000000     0.926890000000     0.0578944  
H129     H      0.305140000000     0.808130000000     0.928760000000     0.0571244  
H130     H      0.306780000000     0.683880000000     0.959000000000     0.0429278  
H131     H      0.334900000000     0.840000000000     0.897480000000     0.0324658  
H132     H      0.267560000000     0.594120000000     0.008240000000     0.148253   
H133     H      0.328920000000     0.403230000000     0.309590000000     0.0339693  
H134     H      0.274470000000     0.572610000000     0.130380000000     0.0458306  
H135     H      0.280760000000     0.438830000000     0.230790000000     0.0425802  
H136     H      0.322640000000     0.537690000000     0.209010000000     0.045135   
H137     H      0.305870000000     0.541500000000     0.160380000000     0.0602005  
H138     H      0.353920000000     0.506070000000     0.239660000000     0.0452215  
H139     H      0.218450000000     0.516120000000     0.202830000000     0.0663528  
H140     H      0.297080000000     0.433980000000     0.278810000000     0.0591329  
H141     H      0.386150000000     0.461950000000     0.239110000000     0.0603477  
H142     H      0.249400000000     0.470570000000     0.200230000000     0.0440774  
H143     H      0.417140000000     0.431490000000     0.270590000000     0.0386589  
H144     H      0.153950000000     0.514130000000     0.151650000000     0.150657   
H145     H      0.991850000000     0.357440000000     0.769140000000     0.0327143  
H146     H      0.076210000000     0.169580000000     0.625900000000     0.032743   
H147     H      0.071800000000     0.297190000000     0.735510000000     0.0412923  
H148     H      0.024910000000     0.203920000000     0.702120000000     0.0424948  
H149     H      0.044820000000     0.202020000000     0.655450000000     0.0564234  
H150     H      0.992960000000     0.234630000000     0.732930000000     0.0426389  
H151     H      0.132180000000     0.221340000000     0.701980000000     0.0590942  
H152     H      0.024030000000     0.327970000000     0.737520000000     0.0576397  
H153     H      0.991670000000     0.250520000000     0.780210000000     0.058114   
H154     H      0.103180000000     0.267080000000     0.703540000000     0.0415994  
H155     H      0.959190000000     0.280620000000     0.810910000000     0.0342642  
H156     H      0.194510000000     0.229740000000     0.665910000000     0.147812   
H157     H      0.689430000000     0.161880000000     0.007430000000     0.0322911  
H158     H      0.898240000000     0.287260000000     0.896560000000     0.0356146  
H159     H      0.730010000000     0.241790000000     0.963530000000     0.0429005  
H160     H      0.850380000000     0.249260000000     0.972040000000     0.0433693  
H161     H      0.868110000000     0.254920000000     0.926100000000     0.0573272  
H162     H      0.820720000000     0.216860000000     0.002720000000     0.0424984  
H163     H      0.789300000000     0.316490000000     0.929470000000     0.0677379  
H164     H      0.718550000000     0.193130000000     0.975340000000     0.0579322  
H165     H      0.785390000000     0.216550000000     0.040830000000     0.0600494  
H166     H      0.760020000000     0.272520000000     0.931400000000     0.0445245  
H167     H      0.756550000000     0.184060000000     0.071820000000     0.0382367  
H168     H      0.786550000000     0.349710000000     0.860560000000     0.15217    
H169     H      0.684750000000     0.561530000000     0.665860000000     0.0315582  
H170     H      0.879740000000     0.458520000000     0.806420000000     0.0368558  
H171     H      0.735240000000     0.480860000000     0.701750000000     0.0421517  
H172     H      0.850070000000     0.502850000000     0.726880000000     0.0420246  
H173     H      0.850260000000     0.489630000000     0.775270000000     0.0578851  
H174     H      0.821350000000     0.534850000000     0.694950000000     0.0411497  
H175     H      0.807200000000     0.414790000000     0.736650000000     0.0671598  
H176     H      0.712390000000     0.529070000000     0.697850000000     0.057354   
H177     H      0.800030000000     0.536030000000     0.648650000000     0.0571463  
H178     H      0.763510000000     0.449630000000     0.734780000000     0.0453646  
H179     H      0.771830000000     0.569020000000     0.617550000000     0.0327511  
H180     H      0.797940000000     0.365100000000     0.801600000000     0.156837   
H181     H      0.146240000000     0.521300000000     0.055120000000     0.0348482  
H182     H      0.013650000000     0.418040000000     0.870910000000     0.0326646  
H183     H      0.055190000000     0.478730000000     0.017530000000     0.0438264  
H184     H      0.048490000000     0.500320000000     0.917080000000     0.0424921  
H185     H      0.047850000000     0.447870000000     0.900090000000     0.0563659  
H186     H      0.082360000000     0.531050000000     0.946900000000     0.0412518  
H187     H      0.970790000000     0.453760000000     0.959870000000     0.0681293  
H188     H      0.114460000000     0.490270000000     0.024560000000     0.058652   
H189     H      0.073930000000     0.566850000000     0.985810000000     0.0580947  
H190     H      0.021680000000     0.447860000000     0.987710000000     0.0454402  
H191     H      0.106080000000     0.597280000000     0.016760000000     0.0311875  
H192     H      0.935080000000     0.372930000000     0.945440000000     0.147433   
In1      In     0.917310000000     0.370660000000     0.843590000000     2.44544    
In2      In     0.179570000000     0.612540000000     0.091860000000     2.43751    
In3      In     0.426610000000     0.866140000000     0.842280000000     2.42302    
In4      In     0.674130000000     0.115270000000     0.094630000000     2.41583    
In5      In     0.428980000000     0.367130000000     0.346540000000     2.43552    
In6      In     0.680830000000     0.625200000000     0.588470000000     2.42152    
In7      In     0.938290000000     0.870980000000     0.340590000000     2.43215    
In8      In     0.175290000000     0.122340000000     0.598070000000     2.4118     
N1       N      0.985700000000     0.929180000000     0.390500000000    -0.184033   
N2       N      0.124620000000     0.068850000000     0.546330000000    -0.194675   
N3       N      0.739190000000     0.676110000000     0.539800000000    -0.185914   
N4       N      0.888470000000     0.820180000000     0.395380000000    -0.19524    
N5       N      0.376170000000     0.317400000000     0.400760000000    -0.186097   
N6       N      0.226670000000     0.181020000000     0.552150000000    -0.194298   
N7       N      0.483390000000     0.421180000000     0.395690000000    -0.186973   
N8       N      0.628260000000     0.568300000000     0.541400000000    -0.195011   
N9       N      0.888390000000     0.924570000000     0.287640000000    -0.185441   
N10      N      0.729690000000     0.063550000000     0.144390000000    -0.193856   
N11      N      0.621020000000     0.166880000000     0.146780000000    -0.185794   
N12      N      0.480040000000     0.314790000000     0.294070000000    -0.193161   
N13      N      0.374170000000     0.919650000000     0.791220000000    -0.186042   
N14      N      0.225390000000     0.063760000000     0.645320000000    -0.195291   
N15      N      0.632710000000     0.686030000000     0.635020000000    -0.185726   
N16      N      0.480250000000     0.821910000000     0.785040000000    -0.194676   
N17      N      0.623310000000     0.056570000000     0.047780000000    -0.184837   
N18      N      0.476870000000     0.913690000000     0.899270000000    -0.193005   
N19      N      0.989190000000     0.815450000000     0.290030000000    -0.186228   
N20      N      0.126290000000     0.663250000000     0.144190000000    -0.194295   
N21      N      0.237690000000     0.662390000000     0.041820000000    -0.186079   
N22      N      0.376800000000     0.812150000000     0.894310000000    -0.195232   
N23      N      0.227830000000     0.562470000000     0.148520000000    -0.183542   
N24      N      0.375250000000     0.415280000000     0.292360000000    -0.193365   
N25      N      0.121580000000     0.176970000000     0.646820000000    -0.186266   
N26      N      0.973160000000     0.321130000000     0.792170000000    -0.193653   
N27      N      0.861410000000     0.320660000000     0.894960000000    -0.183949   
N28      N      0.721040000000     0.170620000000     0.041810000000    -0.195042   
N29      N      0.860880000000     0.418160000000     0.790240000000    -0.186076   
N30      N      0.726360000000     0.567690000000     0.639550000000    -0.194142   
N31      N      0.972040000000     0.418400000000     0.898080000000    -0.187469   
N32      N      0.128290000000     0.561460000000     0.038180000000    -0.1955     
O1       O      0.869030000000     0.358950000000     0.864130000000    -0.473897   
O2       O      0.909940000000     0.332430000000     0.873050000000    -0.491289   
O3       O      0.898670000000     0.413580000000     0.825670000000    -0.50318    
O4       O      0.923230000000     0.399410000000     0.881700000000    -0.482556   
O5       O      0.936660000000     0.327000000000     0.828160000000    -0.491731   
O6       O      0.965770000000     0.389780000000     0.858950000000    -0.504935   
O7       O      0.879600000000     0.374600000000     0.809130000000    -0.48365    
O8       O      0.953790000000     0.365340000000     0.808180000000    -0.498481   
O9       O      0.131050000000     0.628760000000     0.109550000000    -0.496417   
O10      O      0.174870000000     0.646970000000     0.125560000000    -0.501367   
O11      O      0.180930000000     0.579830000000     0.127100000000    -0.481282   
O12      O      0.165080000000     0.568420000000     0.073730000000    -0.498437   
O13      O      0.192980000000     0.655080000000     0.070300000000    -0.505751   
O14      O      0.143530000000     0.606120000000     0.056130000000    -0.503144   
O15      O      0.226160000000     0.595810000000     0.112470000000    -0.480853   
O16      O      0.224020000000     0.618980000000     0.063930000000    -0.479331   
O17      O      0.433960000000     0.828980000000     0.811500000000    -0.502794   
O18      O      0.472280000000     0.859870000000     0.815740000000    -0.493344   
O19      O      0.382490000000     0.876240000000     0.814760000000    -0.497161   
O20      O      0.381750000000     0.854030000000     0.868040000000    -0.498193   
O21      O      0.471640000000     0.874940000000     0.869010000000    -0.493117   
O22      O      0.421800000000     0.824650000000     0.868060000000    -0.504257   
O23      O      0.418970000000     0.908490000000     0.818690000000    -0.483414   
O24      O      0.431290000000     0.903790000000     0.872790000000    -0.488545   
O25      O      0.625940000000     0.128190000000     0.116200000000    -0.475479   
O26      O      0.668370000000     0.153750000000     0.123650000000    -0.474455   
O27      O      0.669720000000     0.072630000000     0.070920000000    -0.481226   
O28      O      0.679330000000     0.138830000000     0.053020000000    -0.504662   
O29      O      0.683640000000     0.090920000000     0.135090000000    -0.503842   
O30      O      0.715120000000     0.147050000000     0.083680000000    -0.489939   
O31      O      0.628170000000     0.099880000000     0.072200000000    -0.486377   
O32      O      0.719480000000     0.087860000000     0.103460000000    -0.484974   
O33      O      0.389070000000     0.361150000000     0.379320000000    -0.496578   
O34      O      0.416740000000     0.324310000000     0.367830000000    -0.48535    
O35      O      0.432410000000     0.330600000000     0.314760000000    -0.491772   
O36      O      0.423920000000     0.397810000000     0.309770000000    -0.493584   
O37      O      0.468390000000     0.375560000000     0.379370000000    -0.499182   
O38      O      0.380250000000     0.383190000000     0.329040000000    -0.492533   
O39      O      0.476490000000     0.351840000000     0.326370000000    -0.494631   
O40      O      0.443600000000     0.411810000000     0.362720000000    -0.489824   
O41      O      0.633250000000     0.602210000000     0.576520000000    -0.494217   
O42      O      0.676070000000     0.591390000000     0.554040000000    -0.503634   
O43      O      0.673360000000     0.651760000000     0.627960000000    -0.500911   
O44      O      0.681360000000     0.594080000000     0.625250000000    -0.499639   
O45      O      0.690300000000     0.653320000000     0.550580000000    -0.468087   
O46      O      0.725110000000     0.598680000000     0.601900000000    -0.493424   
O47      O      0.641340000000     0.659770000000     0.594580000000    -0.475217   
O48      O      0.729300000000     0.648960000000     0.579320000000    -0.480933   
O49      O      0.983390000000     0.896150000000     0.354100000000    -0.460953   
O50      O      0.939790000000     0.903510000000     0.376460000000    -0.49944    
O51      O      0.934190000000     0.911650000000     0.313410000000    -0.478404   
O52      O      0.941710000000     0.837640000000     0.305370000000    -0.507249   
O53      O      0.936210000000     0.836640000000     0.375080000000    -0.504266   
O54      O      0.985120000000     0.848570000000     0.326240000000    -0.470535   
O55      O      0.893830000000     0.883190000000     0.314640000000    -0.49114    
O56      O      0.891550000000     0.854670000000     0.360780000000    -0.49763    
O57      O      0.220700000000     0.149910000000     0.589440000000    -0.489645   
O58      O      0.180480000000     0.154040000000     0.561960000000    -0.501938   
O59      O      0.180800000000     0.093020000000     0.636080000000    -0.501103   
O60      O      0.169860000000     0.154520000000     0.633550000000    -0.472262   
O61      O      0.170460000000     0.095080000000     0.558790000000    -0.500142   
O62      O      0.127450000000     0.145770000000     0.609510000000    -0.480964   
O63      O      0.219070000000     0.092650000000     0.606530000000    -0.497498   
O64      O      0.130450000000     0.095210000000     0.586760000000    -0.493729   
O65      O      0.051830000000     0.897030000000     0.355290000000    -0.120934   
O66      O      0.016640000000     0.937920000000     0.326780000000    -0.227409   
O67      O      0.072530000000     0.952480000000     0.352890000000    -0.167455   
O68      O      0.679280000000     0.648370000000     0.525710000000    -0.0635176  
O69      O      0.659080000000     0.705180000000     0.516740000000    -0.239381   
O70      O      0.683010000000     0.671990000000     0.474020000000    -0.170015   
O71      O      0.391240000000     0.274130000000     0.346330000000    -0.148216   
O72      O      0.441740000000     0.271320000000     0.383250000000    -0.249872   
O73      O      0.393980000000     0.230500000000     0.382960000000    -0.175173   
O74      O      0.476540000000     0.454780000000     0.334930000000    -0.149141   
O75      O      0.424290000000     0.469080000000     0.367420000000    -0.249715   
O76      O      0.476990000000     0.504580000000     0.363680000000    -0.173605   
O77      O      0.935280000000     0.969310000000     0.326530000000    -0.154271   
O78      O      0.967910000000     0.950330000000     0.280510000000    -0.241171   
O79      O      0.938160000000     0.002990000000     0.281390000000    -0.174167   
O80      O      0.690040000000     0.162510000000     0.141570000000    -0.0662316  
O81      O      0.683830000000     0.220460000000     0.126800000000    -0.25975    
O82      O      0.697640000000     0.205040000000     0.180540000000    -0.171869   
O83      O      0.405050000000     0.962220000000     0.840690000000    -0.147566   
O84      O      0.448790000000     0.957620000000     0.798170000000    -0.249206   
O85      O      0.407950000000     0.003880000000     0.802070000000    -0.175007   
O86      O      0.641140000000     0.716370000000     0.573940000000    -0.144446   
O87      O      0.585040000000     0.684040000000     0.573400000000    -0.240482   
O88      O      0.583630000000     0.742270000000     0.583150000000    -0.172545   
O89      O      0.704130000000     0.034450000000     0.038010000000    -0.147075   
O90      O      0.675340000000     0.015830000000     0.085910000000    -0.25268    
O91      O      0.677990000000     0.980920000000     0.041000000000    -0.175713   
O92      O      0.037510000000     0.873070000000     0.299470000000    -0.12644    
O93      O      0.047470000000     0.833280000000     0.340880000000    -0.23337    
O94      O      0.087410000000     0.835600000000     0.296260000000    -0.168152   
O95      O      0.289650000000     0.618370000000     0.075360000000    -0.144834   
O96      O      0.266760000000     0.591730000000     0.028590000000    -0.250499   
O97      O      0.325230000000     0.619310000000     0.028940000000    -0.17504    
O98      O      0.160090000000     0.584960000000     0.180590000000    -0.153134   
O99      O      0.147430000000     0.534920000000     0.151770000000    -0.247514   
O100     O      0.161030000000     0.533520000000     0.206610000000    -0.174353   
O101     O      0.184370000000     0.152890000000     0.657510000000    -0.0661984  
O102     O      0.201820000000     0.211130000000     0.657590000000    -0.260278   
O103     O      0.187400000000     0.182850000000     0.706250000000    -0.172694   
O104     O      0.838350000000     0.389610000000     0.905530000000    -0.128713   
O105     O      0.802420000000     0.365680000000     0.863620000000    -0.244293   
O106     O      0.778980000000     0.367920000000     0.915970000000    -0.169973   
O107     O      0.866130000000     0.350910000000     0.758390000000    -0.152001   
O108     O      0.818540000000     0.354460000000     0.797970000000    -0.244749   
O109     O      0.804080000000     0.361400000000     0.743840000000    -0.175265   
O110     O      0.892230000000     0.434760000000     0.920450000000    -0.132464   
O111     O      0.916580000000     0.381400000000     0.934980000000    -0.248708   
O112     O      0.919220000000     0.426750000000     0.970510000000    -0.171002   
S1       S      0.039710000000     0.931440000000     0.354900000000     0.284901   
S2       S      0.685800000000     0.679160000000     0.507510000000     0.255513   
S3       S      0.401560000000     0.265680000000     0.378490000000     0.281521   
S4       S      0.465190000000     0.470030000000     0.364480000000     0.281401   
S5       S      0.935270000000     0.968810000000     0.292250000000     0.279498   
S6       S      0.677810000000     0.195790000000     0.152000000000     0.253764   
S7       S      0.411000000000     0.968280000000     0.807270000000     0.280778   
S8       S      0.604820000000     0.711990000000     0.588420000000     0.281923   
S9       S      0.673610000000     0.015210000000     0.051140000000     0.282214   
S10      S      0.049040000000     0.839270000000     0.306580000000     0.284942   
S11      S      0.287440000000     0.620480000000     0.041190000000     0.280942   
S12      S      0.169880000000     0.550110000000     0.177080000000     0.282005   
S13      S      0.178740000000     0.185470000000     0.672880000000     0.251889   
S14      S      0.812490000000     0.363240000000     0.897270000000     0.281543   
S15      S      0.832180000000     0.367910000000     0.767740000000     0.282284   
S16      S      0.921750000000     0.417700000000     0.937380000000     0.282743   


