data_structure

_audit_creation_method RASPA-1.0
_audit_creation_date 2023-6-5
_audit_author_name 'Poobodin Mano'

_cell_length_a    56.0875
_cell_length_b    56.7477
_cell_length_c    30.4071
_cell_angle_alpha 89.7776
_cell_angle_beta  90.2224
_cell_angle_gamma 89.9997
_cell_volume      96779.4

_symmetry_cell_setting          triclinic
_symmetry_space_group_name_Hall 'P 1'
_symmetry_space_group_name_H-M  'P 1'
_symmetry_Int_Tables_number     1

_symmetry_equiv_pos_as_xyz 'x,y,z'

loop_
_atom_site_label
_atom_site_type_symbol
_atom_site_fract_x
_atom_site_fract_y
_atom_site_fract_z
_atom_site_charge
C1       C      0.320890000000     0.375930000000     0.002960000000     0.415042   
C2       C      0.311480000000     0.308070000000     0.926110000000     0.411246   
C3       C      0.378210000000     0.325580000000     0.991790000000     0.427224   
C4       C      0.310090000000     0.307930000000     0.068710000000     0.413408   
C5       C      0.322900000000     0.624490000000     0.999660000000     0.425319   
C6       C      0.309160000000     0.694380000000     0.065010000000     0.423288   
C7       C      0.377290000000     0.673700000000     0.991830000000     0.424968   
C8       C      0.307080000000     0.693450000000     0.927460000000     0.416294   
C9       C      0.630060000000     0.319610000000     0.998680000000     0.410477   
C10      C      0.700280000000     0.299810000000     0.930980000000     0.421279   
C11      C      0.682080000000     0.370010000000     0.991090000000     0.423533   
C12      C      0.699940000000     0.301720000000     0.067380000000     0.424215   
C13      C      0.683670000000     0.619050000000     0.982830000000     0.411414   
C14      C      0.696640000000     0.691500000000     0.917060000000     0.427407   
C15      C      0.629200000000     0.672810000000     0.980460000000     0.414796   
C16      C      0.699530000000     0.683180000000     0.056040000000     0.422      
C17      C      0.827230000000     0.120070000000     0.498600000000     0.423045   
C18      C      0.810810000000     0.189490000000     0.568320000000     0.412837   
C19      C      0.880160000000     0.170230000000     0.498860000000     0.422944   
C20      C      0.809610000000     0.190130000000     0.432830000000     0.411299   
C21      C      0.874910000000     0.819130000000     0.477670000000     0.413559   
C22      C      0.805010000000     0.806470000000     0.555440000000     0.413005   
C23      C      0.820000000000     0.871290000000     0.485690000000     0.411488   
C24      C      0.808040000000     0.800570000000     0.414470000000     0.412507   
C25      C      0.126770000000     0.822420000000     0.491530000000     0.425648   
C26      C      0.197300000000     0.805420000000     0.425560000000     0.412882   
C27      C      0.179660000000     0.873860000000     0.495510000000     0.426376   
C28      C      0.195390000000     0.803850000000     0.562920000000     0.426613   
C29      C      0.132430000000     0.173650000000     0.499510000000     0.413827   
C30      C      0.203180000000     0.191610000000     0.566230000000     0.422794   
C31      C      0.184710000000     0.123050000000     0.497110000000     0.412024   
C32      C      0.201790000000     0.193620000000     0.430530000000     0.425653   
C33      C      0.190320000000     0.934290000000     0.534520000000    -0.166192   
C34      C      0.181270000000     0.086760000000     0.458980000000     0.0761826  
C35      C      0.191940000000     0.086900000000     0.534510000000     0.0762011  
C36      C      0.181830000000     0.062160000000     0.458410000000    -0.0934707  
C37      C      0.196290000000     0.010620000000     0.461240000000    -0.0371934  
C38      C      0.195630000000     0.986000000000     0.461160000000    -0.0282736  
C39      C      0.187350000000     0.023370000000     0.497170000000    -0.00372335 
C40      C      0.192700000000     0.062290000000     0.535110000000    -0.0934335  
C41      C      0.186070000000     0.973540000000     0.497040000000    -0.0183168  
C42      C      0.178090000000     0.935280000000     0.458680000000    -0.113343   
C43      C      0.177310000000     0.986270000000     0.533100000000    -0.0281482  
C44      C      0.176570000000     0.910730000000     0.459200000000     0.0874429  
C45      C      0.188600000000     0.909680000000     0.534180000000     0.247194   
C46      C      0.177930000000     0.010880000000     0.533160000000    -0.0371236  
C47      C      0.187440000000     0.049580000000     0.496840000000     0.0505108  
C48      C      0.184920000000     0.947380000000     0.496670000000     0.0834582  
C49      C      0.063590000000     0.825100000000     0.523340000000    -0.166842   
C50      C      0.912360000000     0.834170000000     0.454810000000     0.0754648  
C51      C      0.910620000000     0.798870000000     0.496670000000     0.0761304  
C52      C      0.937230000000     0.833220000000     0.454540000000    -0.0935952  
C53      C      0.989200000000     0.820910000000     0.440960000000    -0.0373994  
C54      C      0.014080000000     0.821450000000     0.443230000000    -0.028327   
C55      C      0.975650000000     0.814120000000     0.477700000000    -0.00378807 
C56      C      0.935490000000     0.797330000000     0.496960000000    -0.0936149  
C57      C      0.026040000000     0.815150000000     0.482270000000    -0.0184303  
C58      C      0.066830000000     0.809960000000     0.449880000000    -0.113457   
C59      C      0.012500000000     0.807910000000     0.518740000000    -0.0281804  
C60      C      0.091580000000     0.812000000000     0.452950000000     0.0865752  
C61      C      0.088460000000     0.826800000000     0.525670000000     0.247447   
C62      C      0.987620000000     0.807430000000     0.516500000000    -0.0371902  
C63      C      0.949140000000     0.814750000000     0.476070000000     0.0503332  
C64      C      0.052480000000     0.816630000000     0.485240000000     0.0831861  
C65      C      0.822610000000     0.058210000000     0.534420000000    -0.166296   
C66      C      0.816090000000     0.907860000000     0.448110000000     0.0766979  
C67      C      0.818090000000     0.907010000000     0.526020000000     0.0754402  
C68      C      0.815300000000     0.932450000000     0.448310000000    -0.0937978  
C69      C      0.830510000000     0.983420000000     0.458380000000    -0.0371921  
C70      C      0.831620000000     0.008000000000     0.459780000000    -0.0283066  
C71      C      0.816700000000     0.970830000000     0.489000000000    -0.00385545 
C72      C      0.817310000000     0.931600000000     0.527430000000    -0.0934029  
C73      C      0.818950000000     0.020590000000     0.491840000000    -0.0183218  
C74      C      0.820640000000     0.060340000000     0.455510000000    -0.11315    
C75      C      0.804970000000     0.008020000000     0.522220000000    -0.0283083  
C76      C      0.822740000000     0.084800000000     0.458060000000     0.0867109  
C77      C      0.824600000000     0.082790000000     0.536060000000     0.246101   
C78      C      0.803870000000     0.983430000000     0.520830000000    -0.0373411  
C79      C      0.816200000000     0.944650000000     0.488250000000     0.0505254  
C80      C      0.820640000000     0.046710000000     0.493940000000     0.0829773  
C81      C      0.942100000000     0.174590000000     0.460140000000    -0.166463   
C82      C      0.095990000000     0.171890000000     0.538900000000     0.0761735  
C83      C      0.095540000000     0.178000000000     0.461730000000     0.0762675  
C84      C      0.071100000000     0.172240000000     0.539930000000    -0.0935621  
C85      C      0.019030000000     0.159340000000     0.528300000000    -0.0370939  
C86      C      0.994120000000     0.158910000000     0.528130000000    -0.0283879  
C87      C      0.031530000000     0.175180000000     0.501180000000    -0.00381363 
C88      C      0.070640000000     0.178370000000     0.461520000000    -0.0935563  
C89      C      0.981110000000     0.174230000000     0.500690000000    -0.0183959  
C90      C      0.941700000000     0.171480000000     0.539010000000    -0.113247   
C91      C      0.993570000000     0.190130000000     0.473670000000    -0.0283767  
C92      C      0.916840000000     0.170590000000     0.537680000000     0.0868149  
C93      C      0.917160000000     0.173650000000     0.459730000000     0.246132   
C94      C      0.018480000000     0.190630000000     0.473980000000    -0.0371898  
C95      C      0.058070000000     0.175370000000     0.500910000000     0.0504745  
C96      C      0.954640000000     0.173480000000     0.499960000000     0.0831264  
C97      C      0.709500000000     0.738660000000     0.837030000000    -0.166068   
C98      C      0.805700000000     0.796520000000     0.631390000000     0.0764393  
C99      C      0.771590000000     0.787730000000     0.588170000000     0.075514   
C100     C      0.795060000000     0.786400000000     0.668370000000    -0.0935524  
C101     C      0.774800000000     0.751150000000     0.733110000000    -0.0372252  
C102     C      0.764210000000     0.739680000000     0.768770000000    -0.0289116  
C103     C      0.761000000000     0.764730000000     0.703770000000    -0.00388931 
C104     C      0.760490000000     0.777320000000     0.624400000000    -0.0933721  
C105     C      0.739500000000     0.741340000000     0.775890000000    -0.018222   
C106     C      0.735870000000     0.705930000000     0.825100000000    -0.113382   
C107     C      0.725720000000     0.755070000000     0.746770000000    -0.0283908  
C108     C      0.725100000000     0.694070000000     0.860020000000     0.0873263  
C109     C      0.698980000000     0.726340000000     0.871950000000     0.24596    
C110     C      0.736340000000     0.766660000000     0.711230000000    -0.0370784  
C111     C      0.772250000000     0.776430000000     0.665150000000     0.0503138  
C112     C      0.728160000000     0.728520000000     0.813160000000     0.0825696  
C113     C      0.711420000000     0.702020000000     0.169710000000    -0.166592   
C114     C      0.807210000000     0.767150000000     0.367590000000     0.0755596  
C115     C      0.779000000000     0.797850000000     0.357730000000     0.0766664  
C116     C      0.797040000000     0.754520000000     0.332900000000    -0.0934802  
C117     C      0.780080000000     0.737990000000     0.243070000000    -0.0373332  
C118     C      0.769430000000     0.725920000000     0.208130000000    -0.0284512  
C119     C      0.766080000000     0.750530000000     0.273300000000    -0.00382643 
C120     C      0.768460000000     0.785760000000     0.322820000000    -0.0937089  
C121     C      0.744530000000     0.726120000000     0.202530000000    -0.0184075  
C122     C      0.743570000000     0.714400000000     0.122980000000    -0.113369   
C123     C      0.730540000000     0.738520000000     0.232960000000    -0.0282437  
C124     C      0.732150000000     0.703650000000     0.087470000000     0.0858314  
C125     C      0.700220000000     0.691600000000     0.133450000000     0.246731   
C126     C      0.741170000000     0.750510000000     0.267940000000    -0.0372561  
C127     C      0.777360000000     0.763750000000     0.310080000000     0.0504019  
C128     C      0.733140000000     0.713870000000     0.164700000000     0.0828143  
C129     C      0.714360000000     0.256210000000     0.845640000000    -0.165972   
C130     C      0.809360000000     0.221080000000     0.619330000000     0.0761416  
C131     C      0.780620000000     0.190480000000     0.622790000000     0.0766158  
C132     C      0.798930000000     0.232240000000     0.655320000000    -0.0935462  
C133     C      0.764490000000     0.258260000000     0.715210000000    -0.0371272  
C134     C      0.753660000000     0.269000000000     0.751290000000    -0.0282149  
C135     C      0.767730000000     0.233710000000     0.714230000000    -0.00383368 
C136     C      0.769810000000     0.201120000000     0.658910000000    -0.0936962  
C137     C      0.745850000000     0.255430000000     0.787260000000    -0.0181451  
C138     C      0.742180000000     0.288360000000     0.841720000000    -0.112674   
C139     C      0.749260000000     0.230890000000     0.786380000000    -0.0283115  
C140     C      0.730670000000     0.298900000000     0.877180000000     0.0867785  
C141     C      0.703220000000     0.267090000000     0.881330000000     0.245538   
C142     C      0.760040000000     0.220160000000     0.750270000000    -0.0371791  
C143     C      0.778960000000     0.222240000000     0.675680000000     0.05076    
C144     C      0.734020000000     0.266790000000     0.825380000000     0.082893   
C145     C      0.743340000000     0.288050000000     0.154920000000    -0.166304   
C146     C      0.777210000000     0.193120000000     0.382540000000     0.0762334  
C147     C      0.809030000000     0.220580000000     0.379050000000     0.0766255  
C148     C      0.765970000000     0.204050000000     0.346820000000    -0.0935011  
C149     C      0.740400000000     0.239040000000     0.286840000000    -0.0373774  
C150     C      0.729710000000     0.250000000000     0.250540000000    -0.0282581  
C151     C      0.765150000000     0.235180000000     0.287940000000    -0.00375744 
C152     C      0.798330000000     0.231880000000     0.343190000000    -0.0936579  
C153     C      0.743510000000     0.257280000000     0.214440000000    -0.0183875  
C154     C      0.710190000000     0.261310000000     0.159540000000    -0.113328   
C155     C      0.768260000000     0.253320000000     0.215510000000    -0.0282337  
C156     C      0.699850000000     0.272540000000     0.123260000000     0.0858744  
C157     C      0.732650000000     0.298890000000     0.118410000000     0.245393   
C158     C      0.778950000000     0.242430000000     0.251840000000    -0.0373279  
C159     C      0.776580000000     0.223600000000     0.326520000000     0.0506869  
C160     C      0.732190000000     0.269030000000     0.175850000000     0.0827454  
C161     C      0.682940000000     0.430420000000     0.946590000000    -0.165975   
C162     C      0.689290000000     0.582860000000     0.021040000000     0.0752737  
C163     C      0.684290000000     0.582980000000     0.943560000000     0.0763752  
C164     C      0.690520000000     0.558270000000     0.021430000000    -0.092832   
C165     C      0.704370000000     0.506850000000     0.008810000000    -0.0370793  
C166     C      0.703990000000     0.482220000000     0.009480000000    -0.028042   
C167     C      0.688380000000     0.519530000000     0.982010000000    -0.00366175 
C168     C      0.685380000000     0.558400000000     0.942750000000    -0.0934614  
C169     C      0.687570000000     0.469700000000     0.983430000000    -0.0182675  
C170     C      0.689170000000     0.431400000000     0.024820000000    -0.112719   
C171     C      0.671690000000     0.482410000000     0.956430000000    -0.0280521  
C172     C      0.687700000000     0.406860000000     0.025840000000     0.0873709  
C173     C      0.681390000000     0.405810000000     0.948570000000     0.246167   
C174     C      0.672100000000     0.507010000000     0.955700000000    -0.0371945  
C175     C      0.688290000000     0.545720000000     0.982030000000     0.0504114  
C176     C      0.686690000000     0.443520000000     0.984920000000     0.0830036  
C177     C      0.204180000000     0.765820000000     0.659960000000    -0.166289   
C178     C      0.308370000000     0.720080000000     0.867080000000     0.0768031  
C179     C      0.272710000000     0.699280000000     0.882820000000     0.0767839  
C180     C      0.297500000000     0.731140000000     0.831160000000    -0.0937432  
C181     C      0.265740000000     0.761600000000     0.773160000000    -0.0371361  
C182     C      0.254740000000     0.772360000000     0.737000000000    -0.0281531  
C183     C      0.261880000000     0.737610000000     0.782370000000    -0.00378821 
C184     C      0.261290000000     0.710000000000     0.847090000000    -0.0937542  
C185     C      0.239620000000     0.759380000000     0.709180000000    -0.0182701  
C186     C      0.240400000000     0.786860000000     0.644380000000    -0.113112   
C187     C      0.235740000000     0.735390000000     0.718410000000    -0.0281969  
C188     C      0.229120000000     0.797530000000     0.608500000000     0.0877884  
C189     C      0.193320000000     0.776700000000     0.623660000000     0.246485   
C190     C      0.246740000000     0.724630000000     0.754580000000    -0.037132   
C191     C      0.273680000000     0.726130000000     0.820700000000     0.0509301  
C192     C      0.227930000000     0.770820000000     0.670690000000     0.0833285  
C193     C      0.294200000000     0.739820000000     0.146490000000    -0.166171   
C194     C      0.203390000000     0.771900000000     0.380470000000     0.076125   
C195     C      0.225030000000     0.807050000000     0.366770000000     0.0760209  
C196     C      0.214630000000     0.760820000000     0.345270000000    -0.0937485  
C197     C      0.251050000000     0.738030000000     0.285360000000    -0.0373286  
C198     C      0.262110000000     0.727130000000     0.249720000000    -0.0284284  
C199     C      0.243500000000     0.761620000000     0.282400000000    -0.003821   
C200     C      0.236610000000     0.796510000000     0.331320000000    -0.0934128  
C201     C      0.265900000000     0.739560000000     0.210260000000    -0.0184017  
C202     C      0.271600000000     0.704670000000     0.161050000000    -0.113481   
C203     C      0.258470000000     0.763170000000     0.207370000000    -0.0283005  
C204     C      0.282460000000     0.693960000000     0.125100000000     0.0862631  
C205     C      0.304780000000     0.728680000000     0.110470000000     0.245616   
C206     C      0.247390000000     0.774080000000     0.243020000000    -0.0373279  
C207     C      0.231470000000     0.773120000000     0.320140000000     0.0504527  
C208     C      0.277400000000     0.727860000000     0.172170000000     0.0828142  
C209     C      0.438960000000     0.666430000000     0.953280000000    -0.166017   
C210     C      0.593780000000     0.688660000000     0.011170000000     0.0771724  
C211     C      0.591540000000     0.663610000000     0.949010000000     0.0767513  
C212     C      0.568940000000     0.690280000000     0.012490000000    -0.0933671  
C213     C      0.516710000000     0.676080000000     0.023230000000    -0.0370693  
C214     C      0.491810000000     0.675730000000     0.024600000000    -0.0278879  
C215     C      0.528670000000     0.679070000000     0.983070000000    -0.00368136 
C216     C      0.566690000000     0.665050000000     0.949100000000    -0.0933651  
C217     C      0.478280000000     0.678540000000     0.985870000000    -0.0180292  
C218     C      0.439000000000     0.687110000000     0.022110000000    -0.112286   
C219     C      0.490310000000     0.682000000000     0.945830000000    -0.0278575  
C220     C      0.414160000000     0.685560000000     0.022910000000     0.0867987  
C221     C      0.414040000000     0.665370000000     0.954630000000     0.246714   
C222     C      0.515210000000     0.682140000000     0.944430000000    -0.0372534  
C223     C      0.555090000000     0.678290000000     0.981360000000     0.0509689  
C224     C      0.451760000000     0.677430000000     0.987080000000     0.0829659  
C225     C      0.248210000000     0.207290000000     0.649600000000    -0.165949   
C226     C      0.279540000000     0.303600000000     0.875380000000     0.0770759  
C227     C      0.313780000000     0.279310000000     0.869650000000     0.0755136  
C228     C      0.268960000000     0.292210000000     0.839680000000    -0.0938639  
C229     C      0.245420000000     0.255370000000     0.782150000000    -0.0372209  
C230     C      0.234710000000     0.243690000000     0.746860000000    -0.0289218  
C231     C      0.269750000000     0.261260000000     0.781030000000    -0.0039982  
C232     C      0.303750000000     0.267560000000     0.833750000000    -0.093573   
C233     C      0.248070000000     0.237650000000     0.709530000000    -0.0181774  
C234     C      0.213670000000     0.231930000000     0.657760000000    -0.113028   
C235     C      0.272450000000     0.243420000000     0.708500000000    -0.0283448  
C236     C      0.202990000000     0.220310000000     0.622480000000     0.0875068  
C237     C      0.237030000000     0.195820000000     0.614390000000     0.246336   
C238     C      0.283170000000     0.255080000000     0.743860000000    -0.0370353  
C239     C      0.281000000000     0.273860000000     0.818510000000     0.0505925  
C240     C      0.236540000000     0.225480000000     0.671800000000     0.0829895  
C241     C      0.218710000000     0.239910000000     0.351450000000    -0.166555   
C242     C      0.278920000000     0.284940000000     0.099480000000     0.075279   
C243     C      0.310780000000     0.298040000000     0.144730000000     0.0763149  
C244     C      0.268420000000     0.273500000000     0.135210000000    -0.0939322  
C245     C      0.259130000000     0.239430000000     0.210880000000    -0.0373274  
C246     C      0.248560000000     0.228140000000     0.246770000000    -0.0289018  
C247     C      0.268290000000     0.262380000000     0.215020000000    -0.00418547 
C248     C      0.300650000000     0.286960000000     0.181280000000    -0.0937602  
C249     C      0.246730000000     0.239640000000     0.287470000000    -0.0185908  
C250     C      0.240010000000     0.204230000000     0.335310000000    -0.113433   
C251     C      0.255910000000     0.262570000000     0.291640000000    -0.0283652  
C252     C      0.228740000000     0.193310000000     0.370780000000     0.0871285  
C253     C      0.207400000000     0.228440000000     0.386490000000     0.246607   
C254     C      0.266670000000     0.273790000000     0.255840000000    -0.0371307  
C255     C      0.279270000000     0.274430000000     0.176720000000     0.0505966  
C256     C      0.235070000000     0.227800000000     0.325310000000     0.0832624  
C257     C      0.441180000000     0.341560000000     0.976240000000    -0.166968   
C258     C      0.593540000000     0.310540000000     0.962720000000     0.0761544  
C259     C      0.593250000000     0.326010000000     0.035070000000     0.0760812  
C260     C      0.568650000000     0.309990000000     0.961940000000    -0.0931868  
C261     C      0.516220000000     0.299300000000     0.980880000000    -0.037376   
C262     C      0.491310000000     0.300070000000     0.979450000000    -0.0286713  
C263     C      0.529310000000     0.318490000000     0.997370000000    -0.00404616 
C264     C      0.568350000000     0.325900000000     0.035260000000    -0.0936467  
C265     C      0.479010000000     0.320130000000     0.994020000000    -0.0187992  
C266     C      0.438610000000     0.302260000000     0.005660000000    -0.113748   
C267     C      0.492100000000     0.339280000000     0.010580000000    -0.0282963  
C268     C      0.413780000000     0.304070000000     0.004840000000     0.0869704  
C269     C      0.416270000000     0.342800000000     0.975210000000     0.245862   
C270     C      0.516970000000     0.338430000000     0.012390000000    -0.0370952  
C271     C      0.555760000000     0.317950000000     0.998330000000     0.0505666  
C272     C      0.452600000000     0.321260000000     0.991790000000     0.0831937  
C273     C      0.311440000000     0.563120000000     0.967080000000    -0.165814   
C274     C      0.319470000000     0.411220000000     0.044670000000     0.077289   
C275     C      0.313350000000     0.412540000000     0.967480000000     0.0782849  
C276     C      0.317870000000     0.435750000000     0.046980000000    -0.0935386  
C277     C      0.331020000000     0.487460000000     0.034190000000    -0.0368407  
C278     C      0.331600000000     0.512070000000     0.033520000000    -0.027821   
C279     C      0.313740000000     0.475120000000     0.009890000000    -0.00355166 
C280     C      0.311450000000     0.437060000000     0.968640000000    -0.0935629  
C281     C      0.314800000000     0.524950000000     0.008750000000    -0.0179067  
C282     C      0.322450000000     0.564380000000     0.043510000000    -0.113013   
C283     C      0.297190000000     0.512570000000     0.985200000000    -0.0280862  
C284     C      0.324440000000     0.588840000000     0.040340000000     0.0874306  
C285     C      0.313320000000     0.587700000000     0.964930000000     0.247135   
C286     C      0.296730000000     0.487940000000     0.985630000000    -0.0374152  
C287     C      0.314070000000     0.448980000000     0.008610000000     0.0515087  
C288     C      0.316080000000     0.551140000000     0.006540000000     0.0833129  
H1       H      0.196010000000     0.096090000000     0.564830000000     0.0298703  
H2       H      0.171050000000     0.902150000000     0.429010000000     0.0278679  
H3       H      0.170530000000     0.020130000000     0.561040000000     0.0401416  
H4       H      0.202830000000     0.976700000000     0.433150000000     0.0380427  
H5       H      0.173500000000     0.944720000000     0.428800000000     0.0597616  
H6       H      0.204000000000     0.019670000000     0.433290000000     0.0402904  
H7       H      0.196000000000     0.943050000000     0.564390000000     0.0836297  
H8       H      0.197480000000     0.053320000000     0.565380000000     0.055014   
H9       H      0.177370000000     0.053080000000     0.428210000000     0.0546016  
H10      H      0.169500000000     0.977220000000     0.560960000000     0.0382513  
H11      H      0.176600000000     0.095820000000     0.428690000000     0.0299845  
H12      H      0.178920000000     0.896610000000     0.588630000000     0.157424   
H13      H      0.900670000000     0.785170000000     0.513480000000     0.0300825  
H14      H      0.101950000000     0.806660000000     0.424640000000     0.0277957  
H15      H      0.977760000000     0.802330000000     0.545570000000     0.040166   
H16      H      0.023920000000     0.827310000000     0.414630000000     0.037446   
H17      H      0.059040000000     0.803010000000     0.419970000000     0.0594296  
H18      H      0.980580000000     0.825890000000     0.410380000000     0.0397354  
H19      H      0.053090000000     0.830780000000     0.551180000000     0.0836236  
H20      H      0.943920000000     0.782550000000     0.513420000000     0.0546877  
H21      H      0.947010000000     0.847240000000     0.438460000000     0.0547048  
H22      H      0.021130000000     0.802630000000     0.549140000000     0.0379499  
H23      H      0.903850000000     0.848910000000     0.438260000000     0.029349   
H24      H      0.101100000000     0.821310000000     0.582610000000     0.160788   
H25      H      0.819360000000     0.897540000000     0.556990000000     0.0293776  
H26      H      0.822710000000     0.094600000000     0.427370000000     0.0290898  
H27      H      0.792800000000     0.974280000000     0.544490000000     0.0399241  
H28      H      0.842850000000     0.017110000000     0.436330000000     0.0381877  
H29      H      0.818850000000     0.052200000000     0.423510000000     0.0598926  
H30      H      0.840930000000     0.974260000000     0.433900000000     0.0403756  
H31      H      0.822970000000     0.048230000000     0.564870000000     0.0830778  
H32      H      0.818240000000     0.940300000000     0.559030000000     0.0548043  
H33      H      0.814030000000     0.941820000000     0.417290000000     0.0548308  
H34      H      0.794700000000     0.017210000000     0.546900000000     0.0375584  
H35      H      0.815610000000     0.899070000000     0.416510000000     0.0308783  
H36      H      0.810010000000     0.096430000000     0.585900000000     0.156249   
H37      H      0.104600000000     0.180190000000     0.430530000000     0.0293958  
H38      H      0.907580000000     0.169030000000     0.568800000000     0.0291802  
H39      H      0.027500000000     0.203330000000     0.453220000000     0.0400528  
H40      H      0.985040000000     0.146230000000     0.548860000000     0.0383464  
H41      H      0.950700000000     0.170820000000     0.570570000000     0.0601451  
H42      H      0.028490000000     0.146910000000     0.549110000000     0.0399739  
H43      H      0.951560000000     0.175900000000     0.429210000000     0.0831641  
H44      H      0.061340000000     0.180540000000     0.430490000000     0.0547038  
H45      H      0.062160000000     0.170240000000     0.571240000000     0.054568   
H46      H      0.984040000000     0.202400000000     0.452640000000     0.0377413  
H47      H      0.105410000000     0.169340000000     0.569770000000     0.0298087  
H48      H      0.902940000000     0.191710000000     0.414200000000     0.156238   
H49      H      0.761990000000     0.787860000000     0.557150000000     0.0291906  
H50      H      0.731660000000     0.676560000000     0.867820000000     0.0284329  
H51      H      0.725190000000     0.777200000000     0.689660000000     0.0400676  
H52      H      0.775450000000     0.729550000000     0.790840000000     0.0370338  
H53      H      0.749950000000     0.697180000000     0.807170000000     0.0596967  
H54      H      0.793780000000     0.749010000000     0.728170000000     0.0397038  
H55      H      0.703240000000     0.756250000000     0.829250000000     0.0824226  
H56      H      0.742990000000     0.769580000000     0.620120000000     0.0546729  
H57      H      0.804680000000     0.786510000000     0.699320000000     0.0545427  
H58      H      0.706610000000     0.756570000000     0.750950000000     0.0393781  
H59      H      0.823410000000     0.803920000000     0.635180000000     0.0304405  
H60      H      0.688730000000     0.745930000000     0.918440000000     0.154177   
H61      H      0.771550000000     0.814810000000     0.366570000000     0.0308193  
H62      H      0.740820000000     0.704770000000     0.055710000000     0.0266872  
H63      H      0.729800000000     0.759700000000     0.290920000000     0.0400832  
H64      H      0.780730000000     0.716350000000     0.185600000000     0.0374378  
H65      H      0.760230000000     0.723550000000     0.117390000000     0.0590647  
H66      H      0.799330000000     0.737800000000     0.245940000000     0.0396785  
H67      H      0.703010000000     0.700790000000     0.201660000000     0.0831069  
H68      H      0.753560000000     0.793790000000     0.305660000000     0.0547313  
H69      H      0.804350000000     0.737460000000     0.324560000000     0.0546614  
H70      H      0.711340000000     0.739310000000     0.229410000000     0.0374996  
H71      H      0.822320000000     0.759370000000     0.384620000000     0.0290912  
H72      H      0.666510000000     0.692560000000     0.136140000000     0.15756    
H73      H      0.772990000000     0.174150000000     0.610770000000     0.0299762  
H74      H      0.737620000000     0.315640000000     0.888600000000     0.0303481  
H75      H      0.762630000000     0.201240000000     0.750840000000     0.0404205  
H76      H      0.750990000000     0.287900000000     0.750590000000     0.0387176  
H77      H      0.757550000000     0.297020000000     0.827480000000     0.0601837  
H78      H      0.769930000000     0.269160000000     0.687710000000     0.0403868  
H79      H      0.707320000000     0.239660000000     0.833590000000     0.0831241  
H80      H      0.754200000000     0.192950000000     0.673280000000     0.055094   
H81      H      0.806720000000     0.248430000000     0.667510000000     0.0549193  
H82      H      0.743840000000     0.219960000000     0.813850000000     0.0374195  
H83      H      0.824880000000     0.229280000000     0.604620000000     0.0297943  
H84      H      0.690670000000     0.245690000000     0.923150000000     0.153208   
H85      H      0.825880000000     0.227500000000     0.390940000000     0.030255   
H86      H      0.682800000000     0.265910000000     0.111790000000     0.0275485  
H87      H      0.798000000000     0.239350000000     0.251350000000     0.0405834  
H88      H      0.710660000000     0.253090000000     0.251080000000     0.0379325  
H89      H      0.701070000000     0.246470000000     0.174340000000     0.0594345  
H90      H      0.729330000000     0.233950000000     0.314390000000     0.0401527  
H91      H      0.760220000000     0.294750000000     0.166960000000     0.0831457  
H92      H      0.806980000000     0.247130000000     0.328880000000     0.0551813  
H93      H      0.749280000000     0.196930000000     0.334710000000     0.0548202  
H94      H      0.779360000000     0.258330000000     0.187960000000     0.0374626  
H95      H      0.768550000000     0.177920000000     0.397140000000     0.0300204  
H96      H      0.754730000000     0.310400000000     0.076560000000     0.153821   
H97      H      0.681830000000     0.592140000000     0.912510000000     0.0311757  
H98      H      0.689590000000     0.398280000000     0.057600000000     0.0306458  
H99      H      0.659280000000     0.516250000000     0.935240000000     0.0405238  
H100     H      0.716710000000     0.472980000000     0.030150000000     0.0385846  
H101     H      0.691800000000     0.440800000000     0.055380000000     0.060438   
H102     H      0.717340000000     0.515970000000     0.029010000000     0.0405958  
H103     H      0.681310000000     0.439160000000     0.914970000000     0.0832072  
H104     H      0.683950000000     0.549420000000     0.911490000000     0.0553396  
H105     H      0.692590000000     0.549170000000     0.052580000000     0.0553999  
H106     H      0.658550000000     0.473350000000     0.936520000000     0.0377     
H107     H      0.690730000000     0.591940000000     0.052260000000     0.0316267  
H108     H      0.660130000000     0.392800000000     0.906680000000     0.15438    
H109     H      0.262520000000     0.686920000000     0.902500000000     0.0294535  
H110     H      0.239520000000     0.809850000000     0.589100000000     0.0297351  
H111     H      0.243680000000     0.706030000000     0.760360000000     0.0405773  
H112     H      0.257810000000     0.790960000000     0.731210000000     0.0387478  
H113     H      0.258900000000     0.791010000000     0.651130000000     0.0604295  
H114     H      0.277010000000     0.772180000000     0.794300000000     0.0402986  
H115     H      0.193860000000     0.753700000000     0.679880000000     0.0830714  
H116     H      0.242770000000     0.705850000000     0.840540000000     0.0549682  
H117     H      0.307830000000     0.743270000000     0.811330000000     0.0551687  
H118     H      0.224490000000     0.724800000000     0.697250000000     0.037567   
H119     H      0.326860000000     0.724320000000     0.873970000000     0.0298949  
H120     H      0.170600000000     0.757520000000     0.594680000000     0.153507   
H121     H      0.229530000000     0.825160000000     0.374450000000     0.0305099  
H122     H      0.277340000000     0.675960000000     0.117750000000     0.0278082  
H123     H      0.241480000000     0.792150000000     0.239410000000     0.0402045  
H124     H      0.267970000000     0.709040000000     0.253260000000     0.0379213  
H125     H      0.258470000000     0.694860000000     0.179670000000     0.0593531  
H126     H      0.248680000000     0.728050000000     0.315450000000     0.0399494  
H127     H      0.299360000000     0.757710000000     0.154420000000     0.0831085  
H128     H      0.249720000000     0.806580000000     0.313150000000     0.0551071  
H129     H      0.209870000000     0.742810000000     0.337450000000     0.0544436  
H130     H      0.260800000000     0.773130000000     0.177240000000     0.0375159  
H131     H      0.190390000000     0.761820000000     0.398990000000     0.0294457  
H132     H      0.311830000000     0.749330000000     0.063250000000     0.15341    
H133     H      0.599850000000     0.652900000000     0.923920000000     0.0303712  
H134     H      0.405070000000     0.693310000000     0.050750000000     0.0306372  
H135     H      0.523940000000     0.684810000000     0.913100000000     0.0410936  
H136     H      0.483200000000     0.672670000000     0.055920000000     0.0381059  
H137     H      0.448080000000     0.696080000000     0.048710000000     0.0602608  
H138     H      0.526630000000     0.673360000000     0.053470000000     0.040871   
H139     H      0.448150000000     0.658320000000     0.925970000000     0.0835869  
H140     H      0.556620000000     0.655350000000     0.924660000000     0.055668   
H141     H      0.560640000000     0.700920000000     0.037680000000     0.0554613  
H142     H      0.480500000000     0.684700000000     0.915490000000     0.0380215  
H143     H      0.603910000000     0.698080000000     0.035950000000     0.0306295  
H144     H      0.399340000000     0.666770000000     0.898530000000     0.157928   
H145     H      0.331310000000     0.273790000000     0.880760000000     0.0290614  
H146     H      0.185280000000     0.226030000000     0.612740000000     0.0295149  
H147     H      0.301880000000     0.259630000000     0.741730000000     0.0404439  
H148     H      0.216010000000     0.239140000000     0.749090000000     0.0373319  
H149     H      0.204100000000     0.246140000000     0.673540000000     0.060136   
H150     H      0.234670000000     0.259500000000     0.810610000000     0.0399829  
H151     H      0.265820000000     0.201600000000     0.659860000000     0.0827498  
H152     H      0.313590000000     0.253340000000     0.818610000000     0.0547147  
H153     H      0.251510000000     0.297900000000     0.828560000000     0.0550135  
H154     H      0.283180000000     0.239300000000     0.680010000000     0.03991    
H155     H      0.269600000000     0.317670000000     0.890920000000     0.0309603  
H156     H      0.244830000000     0.163450000000     0.610130000000     0.156911   
H157     H      0.327410000000     0.307450000000     0.149450000000     0.0305513  
H158     H      0.233220000000     0.175040000000     0.377390000000     0.028908   
H159     H      0.273420000000     0.291530000000     0.259920000000     0.0407348  
H160     H      0.241480000000     0.210540000000     0.242470000000     0.0374536  
H161     H      0.252740000000     0.194300000000     0.316120000000     0.0603909  
H162     H      0.260310000000     0.230120000000     0.179930000000     0.0400197  
H163     H      0.214300000000     0.258130000000     0.344340000000     0.0830857  
H164     H      0.309690000000     0.287920000000     0.212770000000     0.0554556  
H165     H      0.251740000000     0.264220000000     0.130420000000     0.05476    
H166     H      0.254920000000     0.271790000000     0.322710000000     0.040107   
H167     H      0.269940000000     0.283880000000     0.067900000000     0.0292138  
H168     H      0.175780000000     0.238810000000     0.396200000000     0.156829   
H169     H      0.602370000000     0.332380000000     0.064200000000     0.0299692  
H170     H      0.403640000000     0.289060000000     0.016590000000     0.0277525  
H171     H      0.526570000000     0.353560000000     0.024910000000     0.0405686  
H172     H      0.481680000000     0.285110000000     0.966300000000     0.0375723  
H173     H      0.446790000000     0.286270000000     0.018100000000     0.060149   
H174     H      0.525250000000     0.283640000000     0.969370000000     0.0407708  
H175     H      0.451490000000     0.356460000000     0.964550000000     0.0832714  
H176     H      0.559030000000     0.331950000000     0.064250000000     0.0552691  
H177     H      0.559570000000     0.303890000000     0.932620000000     0.055955   
H178     H      0.483100000000     0.354890000000     0.022440000000     0.0400535  
H179     H      0.602910000000     0.304530000000     0.933720000000     0.0335673  
H180     H      0.403910000000     0.360680000000     0.927640000000     0.155219   
H181     H      0.311700000000     0.403980000000     0.935790000000     0.0311723  
H182     H      0.329570000000     0.598310000000     0.069810000000     0.0283227  
H183     H      0.283010000000     0.478910000000     0.967040000000     0.0402873  
H184     H      0.345640000000     0.520970000000     0.051490000000     0.0385001  
H185     H      0.325830000000     0.555940000000     0.074920000000     0.0596457  
H186     H      0.344570000000     0.478060000000     0.052720000000     0.0415647  
H187     H      0.306800000000     0.553520000000     0.937530000000     0.0836777  
H188     H      0.308660000000     0.446650000000     0.938180000000     0.0560642  
H189     H      0.319690000000     0.444300000000     0.078610000000     0.0552728  
H190     H      0.283700000000     0.521900000000     0.966440000000     0.0375174  
H191     H      0.322690000000     0.401590000000     0.074990000000     0.0301144  
H192     H      0.291440000000     0.602020000000     0.925520000000     0.156118   
In1      In     0.330140000000     0.329200000000     0.997930000000     2.40521    
In2      In     0.329060000000     0.671760000000     0.995950000000     2.41783    
In3      In     0.678200000000     0.322560000000     0.997530000000     2.4174     
In4      In     0.677090000000     0.666410000000     0.983650000000     2.40451    
In5      In     0.831910000000     0.167580000000     0.499840000000     2.41655    
In6      In     0.826990000000     0.824130000000     0.483380000000     2.40523    
In7      In     0.174910000000     0.826360000000     0.493690000000     2.41922    
In8      In     0.180580000000     0.170550000000     0.498080000000     2.41734    
N1       N      0.181700000000     0.897960000000     0.496530000000    -0.22303    
N2       N      0.186090000000     0.098980000000     0.496820000000    -0.195375   
N3       N      0.102380000000     0.820440000000     0.490330000000    -0.223401   
N4       N      0.899220000000     0.817280000000     0.476150000000    -0.195867   
N5       N      0.824850000000     0.096000000000     0.497860000000    -0.222961   
N6       N      0.817830000000     0.895300000000     0.486630000000    -0.195038   
N7       N      0.904600000000     0.171510000000     0.498490000000    -0.222977   
N8       N      0.108060000000     0.174610000000     0.500070000000    -0.195889   
N9       N      0.706750000000     0.704050000000     0.883230000000    -0.223315   
N10      N      0.794090000000     0.797030000000     0.591610000000    -0.195545   
N11      N      0.710530000000     0.692590000000     0.092360000000    -0.2226     
N12      N      0.798160000000     0.788570000000     0.379970000000    -0.19525    
N13      N      0.711280000000     0.288510000000     0.896760000000    -0.222361   
N14      N      0.800270000000     0.200350000000     0.603320000000    -0.195578   
N15      N      0.710890000000     0.291180000000     0.102810000000    -0.223706   
N16      N      0.798600000000     0.201290000000     0.398340000000    -0.195101   
N17      N      0.683740000000     0.394100000000     0.988210000000    -0.222666   
N18      N      0.685930000000     0.595050000000     0.982460000000    -0.19547    
N19      N      0.205780000000     0.792640000000     0.598200000000    -0.223283   
N20      N      0.296070000000     0.704260000000     0.892600000000    -0.196168   
N21      N      0.298940000000     0.705750000000     0.099970000000    -0.223174   
N22      N      0.208550000000     0.794820000000     0.391050000000    -0.195597   
N23      N      0.401710000000     0.674800000000     0.989580000000    -0.222833   
N24      N      0.604920000000     0.675170000000     0.980030000000    -0.195611   
N25      N      0.214480000000     0.202430000000     0.600840000000    -0.222396   
N26      N      0.301680000000     0.297070000000     0.890370000000    -0.194761   
N27      N      0.212520000000     0.205200000000     0.396170000000    -0.223306   
N28      N      0.299960000000     0.297030000000     0.104240000000    -0.19593    
N29      N      0.402630000000     0.324210000000     0.990250000000    -0.22388    
N30      N      0.605690000000     0.318630000000     0.998900000000    -0.194891   
N31      N      0.320110000000     0.600470000000     0.001410000000    -0.222478   
N32      N      0.317660000000     0.399800000000     0.005110000000    -0.194902   
O1       O      0.300520000000     0.308060000000     0.031110000000    -0.507084   
O2       O      0.329790000000     0.318630000000     0.070730000000    -0.494436   
O3       O      0.300910000000     0.324340000000     0.946540000000    -0.491798   
O4       O      0.321000000000     0.364820000000     0.967060000000    -0.492923   
O5       O      0.365340000000     0.309270000000     0.007220000000    -0.498181   
O6       O      0.325020000000     0.363340000000     0.036480000000    -0.501533   
O7       O      0.331620000000     0.302530000000     0.941830000000    -0.502903   
O8       O      0.366680000000     0.343420000000     0.978970000000    -0.497873   
O9       O      0.296650000000     0.678700000000     0.951910000000    -0.502967   
O10      O      0.328550000000     0.697290000000     0.937690000000    -0.504662   
O11      O      0.303890000000     0.673480000000     0.054660000000    -0.504253   
O12      O      0.318910000000     0.636540000000     0.965410000000    -0.487389   
O13      O      0.364510000000     0.664940000000     0.961850000000    -0.49119    
O14      O      0.329970000000     0.636430000000     0.032210000000    -0.501597   
O15      O      0.324570000000     0.703790000000     0.040430000000    -0.490058   
O16      O      0.365640000000     0.681470000000     0.024160000000    -0.49782    
O17      O      0.708860000000     0.318860000000     0.046660000000    -0.491849   
O18      O      0.679950000000     0.295090000000     0.052720000000    -0.507168   
O19      O      0.682290000000     0.291590000000     0.950570000000    -0.487796   
O20      O      0.642330000000     0.314040000000     0.965580000000    -0.493201   
O21      O      0.684160000000     0.358980000000     0.027090000000    -0.498521   
O22      O      0.642130000000     0.326520000000     0.031340000000    -0.502306   
O23      O      0.707170000000     0.319560000000     0.945250000000    -0.49909    
O24      O      0.678140000000     0.356950000000     0.958330000000    -0.490545   
O25      O      0.708750000000     0.683750000000     0.018180000000    -0.506314   
O26      O      0.679130000000     0.673780000000     0.057220000000    -0.47849    
O27      O      0.704260000000     0.671500000000     0.928980000000    -0.500962   
O28      O      0.680070000000     0.631020000000     0.948420000000    -0.493222   
O29      O      0.642430000000     0.683230000000     0.007820000000    -0.493617   
O30      O      0.684310000000     0.631000000000     0.017700000000    -0.500512   
O31      O      0.679060000000     0.698840000000     0.938970000000    -0.49528    
O32      O      0.640170000000     0.659500000000     0.954300000000    -0.504155   
O33      O      0.801060000000     0.172030000000     0.451220000000    -0.500314   
O34      O      0.829330000000     0.196910000000     0.448510000000    -0.4996     
O35      O      0.803100000000     0.170450000000     0.552320000000    -0.50208    
O36      O      0.829470000000     0.131710000000     0.533650000000    -0.489387   
O37      O      0.867600000000     0.170150000000     0.464350000000    -0.488805   
O38      O      0.827430000000     0.132510000000     0.464060000000    -0.501155   
O39      O      0.829150000000     0.197570000000     0.549590000000    -0.502087   
O40      O      0.868260000000     0.168920000000     0.533990000000    -0.501374   
O41      O      0.825870000000     0.793030000000     0.435800000000    -0.505083   
O42      O      0.799890000000     0.819990000000     0.427900000000    -0.494421   
O43      O      0.826090000000     0.814300000000     0.556310000000    -0.493878   
O44      O      0.861910000000     0.804620000000     0.498080000000    -0.493982   
O45      O      0.820690000000     0.859770000000     0.450270000000    -0.490803   
O46      O      0.863680000000     0.835870000000     0.459700000000    -0.508262   
O47      O      0.794970000000     0.807760000000     0.518270000000    -0.506811   
O48      O      0.822410000000     0.858930000000     0.520050000000    -0.503765   
O49      O      0.174010000000     0.800580000000     0.551460000000    -0.492049   
O50      O      0.206450000000     0.818520000000     0.539220000000    -0.502348   
O51      O      0.181990000000     0.794960000000     0.448910000000    -0.503251   
O52      O      0.139850000000     0.817040000000     0.459360000000    -0.503404   
O53      O      0.172900000000     0.862810000000     0.461680000000    -0.50437    
O54      O      0.138100000000     0.829820000000     0.524640000000    -0.489766   
O55      O      0.201300000000     0.826490000000     0.436630000000    -0.500468   
O56      O      0.184150000000     0.860810000000     0.528210000000    -0.488577   
O57      O      0.186130000000     0.202930000000     0.454530000000    -0.49305    
O58      O      0.206730000000     0.172570000000     0.440750000000    -0.502349   
O59      O      0.182410000000     0.197240000000     0.553800000000    -0.500689   
O60      O      0.144770000000     0.169810000000     0.533610000000    -0.501884   
O61      O      0.179210000000     0.134970000000     0.463410000000    -0.50134    
O62      O      0.144430000000     0.176150000000     0.464750000000    -0.502933   
O63      O      0.212520000000     0.175270000000     0.544080000000    -0.487978   
O64      O      0.188370000000     0.135140000000     0.531250000000    -0.499415   
O65      O      0.194140000000     0.897720000000     0.572220000000    -0.287729   
O66      O      0.098380000000     0.835360000000     0.563750000000    -0.290554   
O67      O      0.826620000000     0.093140000000     0.576650000000    -0.289098   
O68      O      0.905760000000     0.174700000000     0.419720000000    -0.289061   
O69      O      0.680810000000     0.737130000000     0.894350000000    -0.290219   
O70      O      0.678900000000     0.680270000000     0.140280000000    -0.288302   
O71      O      0.683920000000     0.255980000000     0.899780000000    -0.286706   
O72      O      0.744350000000     0.317530000000     0.099260000000    -0.287368   
O73      O      0.677700000000     0.393860000000     0.909960000000    -0.287723   
O74      O      0.169950000000     0.771240000000     0.614770000000    -0.288647   
O75      O      0.321200000000     0.741180000000     0.086480000000    -0.287759   
O76      O      0.402460000000     0.654250000000     0.920670000000    -0.288064   
O77      O      0.249230000000     0.178010000000     0.593910000000    -0.289273   
O78      O      0.191410000000     0.241120000000     0.410970000000    -0.289901   
O79      O      0.406000000000     0.363180000000     0.959690000000    -0.289814   
O80      O      0.308750000000     0.598480000000     0.925260000000    -0.28706    


