data_structure

_audit_creation_method RASPA-1.0
_audit_creation_date 2023-6-5
_audit_author_name 'Poobodin Mano'

_cell_length_a    55.2536
_cell_length_b    55.6266
_cell_length_c    31.3239
_cell_angle_alpha 89.7782
_cell_angle_beta  90.2218
_cell_angle_gamma 89.9997
_cell_volume      96274.8

_symmetry_cell_setting          triclinic
_symmetry_space_group_name_Hall 'P 1'
_symmetry_space_group_name_H-M  'P 1'
_symmetry_Int_Tables_number     1

_symmetry_equiv_pos_as_xyz 'x,y,z'

loop_
_atom_site_label
_atom_site_type_symbol
_atom_site_fract_x
_atom_site_fract_y
_atom_site_fract_z
_atom_site_charge
C1       C      0.334800000000     0.383750000000     0.991880000000     0.412123   
C2       C      0.321890000000     0.314020000000     0.911680000000     0.413292   
C3       C      0.387680000000     0.325250000000     0.971460000000     0.413191   
C4       C      0.318250000000     0.319250000000     0.053640000000     0.406585   
C5       C      0.328300000000     0.637690000000     0.980910000000     0.418869   
C6       C      0.311560000000     0.709330000000     0.051920000000     0.411046   
C7       C      0.380540000000     0.689180000000     0.989080000000     0.414846   
C8       C      0.308800000000     0.707870000000     0.917910000000     0.416607   
C9       C      0.642400000000     0.321240000000     0.978430000000     0.410965   
C10      C      0.715570000000     0.311540000000     0.906210000000     0.415985   
C11      C      0.700120000000     0.376620000000     0.964860000000     0.418326   
C12      C      0.705090000000     0.306250000000     0.046450000000     0.415878   
C13      C      0.697730000000     0.628820000000     0.986830000000     0.409959   
C14      C      0.699460000000     0.698870000000     0.910120000000     0.419472   
C15      C      0.636300000000     0.680270000000     0.977490000000     0.411679   
C16      C      0.706490000000     0.693030000000     0.053450000000     0.414153   
C17      C      0.829490000000     0.128560000000     0.474330000000     0.42563    
C18      C      0.818440000000     0.198930000000     0.545500000000     0.415158   
C19      C      0.884550000000     0.185570000000     0.473800000000     0.418678   
C20      C      0.814730000000     0.194550000000     0.403960000000     0.411182   
C21      C      0.879650000000     0.820630000000     0.472490000000     0.40874    
C22      C      0.808570000000     0.810650000000     0.553330000000     0.408822   
C23      C      0.826250000000     0.875130000000     0.492620000000     0.412032   
C24      C      0.814180000000     0.802640000000     0.414390000000     0.42091    
C25      C      0.134880000000     0.827060000000     0.482590000000     0.424476   
C26      C      0.206030000000     0.819760000000     0.413210000000     0.423312   
C27      C      0.185810000000     0.886070000000     0.483230000000     0.41646    
C28      C      0.202950000000     0.818440000000     0.554460000000     0.41063    
C29      C      0.139920000000     0.194920000000     0.474860000000     0.412163   
C30      C      0.213370000000     0.207730000000     0.547700000000     0.417522   
C31      C      0.191900000000     0.140010000000     0.492650000000     0.410675   
C32      C      0.206870000000     0.208990000000     0.410290000000     0.418325   
C33      C      0.174960000000     0.950500000000     0.459820000000    -0.133243   
C34      C      0.210580000000     0.102800000000     0.475650000000     0.0737683  
C35      C      0.175970000000     0.103480000000     0.520160000000     0.0735819  
C36      C      0.211040000000     0.077700000000     0.477120000000    -0.0950475  
C37      C      0.213790000000     0.024790000000     0.502520000000    -0.0373014  
C38      C      0.212910000000     0.999690000000     0.500300000000    -0.0326737  
C39      C      0.192460000000     0.038480000000     0.499500000000    -0.00618516 
C40      C      0.175840000000     0.078400000000     0.522230000000    -0.0948244  
C41      C      0.190690000000     0.987770000000     0.494740000000    -0.0143178  
C42      C      0.203350000000     0.946360000000     0.517520000000    -0.104798   
C43      C      0.169350000000     0.001470000000     0.492280000000    -0.0325819  
C44      C      0.201730000000     0.921450000000     0.513720000000     0.076758   
C45      C      0.173670000000     0.925330000000     0.456150000000     0.153525   
C46      C      0.170220000000     0.026510000000     0.494660000000    -0.0372965  
C47      C      0.193310000000     0.065180000000     0.500080000000     0.0493178  
C48      C      0.189700000000     0.961190000000     0.490710000000     0.0659351  
C49      C      0.157500000000     0.915480000000     0.421170000000    -0.217164   
C50      C      0.074170000000     0.804150000000     0.452810000000    -0.133437   
C51      C      0.916680000000     0.832420000000     0.440360000000     0.0747615  
C52      C      0.916690000000     0.803110000000     0.495550000000     0.0745838  
C53      C      0.941930000000     0.831860000000     0.438810000000    -0.094814   
C54      C      0.994110000000     0.839340000000     0.466540000000    -0.0371228  
C55      C      0.019330000000     0.840030000000     0.469240000000    -0.0324666  
C56      C      0.981730000000     0.817270000000     0.467610000000    -0.00606217 
C57      C      0.941930000000     0.801990000000     0.494670000000    -0.0945247  
C58      C      0.032770000000     0.818670000000     0.472860000000    -0.0145703  
C59      C      0.070630000000     0.836230000000     0.503420000000    -0.106276   
C60      C      0.020450000000     0.796560000000     0.473340000000    -0.0324645  
C61      C      0.095760000000     0.837620000000     0.505450000000     0.0789361  
C62      C      0.099590000000     0.805770000000     0.455320000000     0.153506   
C63      C      0.995170000000     0.795880000000     0.470940000000    -0.0374329  
C64      C      0.954870000000     0.816780000000     0.466590000000     0.0497829  
C65      C      0.059550000000     0.819610000000     0.476490000000     0.0664978  
C66      C      0.114030000000     0.788020000000     0.429190000000    -0.218004   
C67      C      0.833740000000     0.064220000000     0.445520000000    -0.134027   
C68      C      0.805530000000     0.911520000000     0.476460000000     0.0750108  
C69      C      0.842120000000     0.912430000000     0.516310000000     0.0751955  
C70      C      0.804340000000     0.936620000000     0.476780000000    -0.0945171  
C71      C      0.802020000000     0.989930000000     0.502470000000    -0.0371404  
C72      C      0.802330000000     0.015030000000     0.499210000000    -0.0323553  
C73      C      0.823000000000     0.976510000000     0.493950000000    -0.00604763 
C74      C      0.841650000000     0.937510000000     0.516800000000    -0.0949893  
C75      C      0.823510000000     0.027080000000     0.486670000000    -0.0145032  
C76      C      0.814970000000     0.068420000000     0.514040000000    -0.105469   
C77      C      0.844460000000     0.013640000000     0.478230000000    -0.0322842  
C78      C      0.816830000000     0.093320000000     0.509990000000     0.0785371  
C79      C      0.835090000000     0.089380000000     0.441560000000     0.15562    
C80      C      0.844240000000     0.988640000000     0.482040000000    -0.0371213  
C81      C      0.822780000000     0.949890000000     0.496420000000     0.0501429  
C82      C      0.823890000000     0.053600000000     0.481970000000     0.0671728  
C83      C      0.845870000000     0.099200000000     0.400660000000    -0.218387   
C84      C      0.944930000000     0.214450000000     0.466340000000    -0.133267   
C85      C      0.103650000000     0.193650000000     0.433890000000     0.0744462  
C86      C      0.102080000000     0.202670000000     0.507750000000     0.0754296  
C87      C      0.078430000000     0.194660000000     0.431080000000    -0.0946998  
C88      C      0.025610000000     0.181250000000     0.442520000000    -0.0370569  
C89      C      0.000370000000     0.179940000000     0.442820000000    -0.0324028  
C90      C      0.037780000000     0.199090000000     0.465920000000    -0.0059471  
C91      C      0.076850000000     0.203840000000     0.506090000000    -0.0944862  
C92      C      0.986660000000     0.196440000000     0.466520000000    -0.0142965  
C93      C      0.949100000000     0.171660000000     0.472930000000    -0.105682   
C94      C      0.998780000000     0.214610000000     0.489190000000    -0.0323258  
C95      C      0.924030000000     0.169650000000     0.474820000000     0.0782823  
C96      C      0.919550000000     0.212090000000     0.468310000000     0.154691   
C97      C      0.024050000000     0.215900000000     0.488940000000    -0.037246   
C98      C      0.064670000000     0.199510000000     0.467560000000     0.0497184  
C99      C      0.959870000000     0.194190000000     0.468500000000     0.0664483  
C100     C      0.904800000000     0.235000000000     0.465700000000    -0.219437   
C101     C      0.717270000000     0.712600000000     0.798750000000    -0.132897   
C102     C      0.810100000000     0.791220000000     0.620870000000     0.0741975  
C103     C      0.772280000000     0.803000000000     0.591520000000     0.0738204  
C104     C      0.798610000000     0.781400000000     0.656490000000    -0.0943883  
C105     C      0.770790000000     0.773000000000     0.738200000000    -0.0369967  
C106     C      0.759630000000     0.761720000000     0.772840000000    -0.032198   
C107     C      0.760820000000     0.771290000000     0.696950000000    -0.00581368 
C108     C      0.760180000000     0.793420000000     0.626790000000    -0.094488   
C109     C      0.738160000000     0.748530000000     0.767150000000    -0.0139378  
C110     C      0.726190000000     0.746110000000     0.844170000000    -0.104943   
C111     C      0.727920000000     0.747210000000     0.726050000000    -0.0324587  
C112     C      0.716570000000     0.733400000000     0.878540000000     0.0781608  
C113     C      0.707420000000     0.700070000000     0.833750000000     0.154216   
C114     C      0.739130000000     0.758430000000     0.691370000000    -0.037169   
C115     C      0.773330000000     0.782320000000     0.659760000000     0.0494362  
C116     C      0.726890000000     0.735670000000     0.803770000000     0.0662542  
C117     C      0.697380000000     0.675220000000     0.825110000000    -0.218737   
C118     C      0.792880000000     0.754490000000     0.341890000000    -0.132688   
C119     C      0.703350000000     0.710470000000     0.122270000000     0.0752826  
C120     C      0.741990000000     0.704260000000     0.091520000000     0.0752492  
C121     C      0.713970000000     0.720820000000     0.158310000000    -0.0945663  
C122     C      0.740650000000     0.755370000000     0.216630000000    -0.0368161  
C123     C      0.751520000000     0.766300000000     0.251900000000    -0.0322383  
C124     C      0.750740000000     0.734550000000     0.198640000000    -0.00586446 
C125     C      0.753220000000     0.714460000000     0.127150000000    -0.0944953  
C126     C      0.772700000000     0.756640000000     0.270100000000    -0.0139953  
C127     C      0.786240000000     0.793210000000     0.309940000000    -0.104915   
C128     C      0.782790000000     0.735810000000     0.252160000000    -0.0324088  
C129     C      0.796600000000     0.803890000000     0.345740000000     0.0782287  
C130     C      0.803350000000     0.765570000000     0.377850000000     0.15333    
C131     C      0.771950000000     0.724910000000     0.216770000000    -0.0371723  
C132     C      0.739190000000     0.723050000000     0.160990000000     0.0500062  
C133     C      0.784150000000     0.768260000000     0.307760000000     0.066288   
C134     C      0.812490000000     0.749160000000     0.413090000000    -0.217728   
C135     C      0.762710000000     0.284060000000     0.838070000000    -0.133121   
C136     C      0.787160000000     0.221170000000     0.578840000000     0.0741568  
C137     C      0.822590000000     0.211040000000     0.617860000000     0.0742292  
C138     C      0.777650000000     0.232960000000     0.614270000000    -0.0945294  
C139     C      0.767680000000     0.267860000000     0.685810000000    -0.0371703  
C140     C      0.757700000000     0.279200000000     0.721350000000    -0.0327272  
C141     C      0.781000000000     0.246440000000     0.690480000000    -0.00597501 
C142     C      0.813680000000     0.222780000000     0.653890000000    -0.0945186  
C143     C      0.760950000000     0.269510000000     0.762450000000    -0.0142586  
C144     C      0.725830000000     0.289150000000     0.798350000000    -0.105291   
C145     C      0.774560000000     0.248330000000     0.767290000000    -0.0324439  
C146     C      0.715240000000     0.299350000000     0.834250000000     0.0775027  
C147     C      0.751800000000     0.294620000000     0.873990000000     0.153471   
C148     C      0.784420000000     0.236890000000     0.731720000000    -0.0371415  
C149     C      0.790940000000     0.233960000000     0.652440000000     0.049346   
C150     C      0.749730000000     0.281170000000     0.800070000000     0.0661494  
C151     C      0.767290000000     0.297030000000     0.913740000000    -0.218398   
C152     C      0.724480000000     0.293620000000     0.157540000000    -0.133558   
C153     C      0.779410000000     0.200070000000     0.361590000000     0.0745927  
C154     C      0.816620000000     0.217420000000     0.339860000000     0.0736826  
C155     C      0.767640000000     0.210090000000     0.326240000000    -0.0950953  
C156     C      0.779060000000     0.234940000000     0.219210000000    -0.0373288  
C157     C      0.767690000000     0.246020000000     0.184410000000    -0.0325213  
C158     C      0.768350000000     0.235360000000     0.259820000000    -0.00628788 
C159     C      0.805470000000     0.227540000000     0.303980000000    -0.0952255  
C160     C      0.745470000000     0.257940000000     0.189580000000    -0.0145065  
C161     C      0.732300000000     0.259450000000     0.113110000000    -0.105793   
C162     C      0.734680000000     0.258240000000     0.230130000000    -0.0325584  
C163     C      0.721990000000     0.271740000000     0.078720000000     0.0777563  
C164     C      0.714090000000     0.305770000000     0.122500000000     0.154201   
C165     C      0.745960000000     0.246980000000     0.264850000000    -0.0373545  
C166     C      0.780660000000     0.224080000000     0.297010000000     0.0496266  
C167     C      0.733850000000     0.270450000000     0.152940000000     0.0664678  
C168     C      0.703820000000     0.330560000000     0.130730000000    -0.218889   
C169     C      0.694360000000     0.441050000000     0.936820000000    -0.1334     
C170     C      0.691380000000     0.589810000000     0.015730000000     0.0758587  
C171     C      0.718420000000     0.595210000000     0.957890000000     0.0743445  
C172     C      0.694730000000     0.564960000000     0.014280000000    -0.0935458  
C173     C      0.712850000000     0.513480000000     0.015550000000    -0.0365686  
C174     C      0.712900000000     0.488470000000     0.011420000000    -0.031177   
C175     C      0.712080000000     0.528370000000     0.979200000000    -0.0066528  
C176     C      0.722210000000     0.570410000000     0.955530000000    -0.0946775  
C177     C      0.712160000000     0.477760000000     0.970840000000    -0.0156065  
C178     C      0.723570000000     0.435880000000     0.993000000000    -0.10663    
C179     C      0.712130000000     0.492660000000     0.934480000000    -0.0323095  
C180     C      0.720300000000     0.411080000000     0.990420000000     0.0763927  
C181     C      0.691480000000     0.415960000000     0.934310000000     0.15358    
C182     C      0.712090000000     0.517660000000     0.938600000000    -0.0373943  
C183     C      0.709980000000     0.554910000000     0.983460000000     0.048636   
C184     C      0.710220000000     0.451210000000     0.966580000000     0.0665512  
C185     C      0.674410000000     0.406580000000     0.900290000000    -0.217714   
C186     C      0.264960000000     0.722980000000     0.832100000000    -0.132967   
C187     C      0.236110000000     0.814930000000     0.602650000000     0.0750052  
C188     C      0.200390000000     0.792270000000     0.614310000000     0.0745845  
C189     C      0.246780000000     0.804910000000     0.639120000000    -0.0942387  
C190     C      0.269930000000     0.770800000000     0.703060000000    -0.0369095  
C191     C      0.280250000000     0.759860000000     0.739020000000    -0.0326478  
C192     C      0.245190000000     0.776850000000     0.702300000000    -0.00596355 
C193     C      0.210560000000     0.781770000000     0.650750000000    -0.0943926  
C194     C      0.266040000000     0.754520000000     0.774920000000    -0.0141722  
C195     C      0.298990000000     0.749720000000     0.829330000000    -0.105014   
C196     C      0.241390000000     0.760670000000     0.774380000000    -0.0327274  
C197     C      0.308870000000     0.737980000000     0.864710000000     0.077092   
C198     C      0.275240000000     0.711220000000     0.867690000000     0.152645   
C199     C      0.231110000000     0.771790000000     0.738590000000    -0.0371124  
C200     C      0.234040000000     0.788030000000     0.663680000000     0.049512   
C201     C      0.276820000000     0.742270000000     0.812640000000     0.0659472  
C202     C      0.260890000000     0.690710000000     0.886990000000    -0.217297   
C203     C      0.230290000000     0.812200000000     0.303960000000    -0.132483   
C204     C      0.278640000000     0.714820000000     0.099400000000     0.0740067  
C205     C      0.314590000000     0.737520000000     0.108450000000     0.0738981  
C206     C      0.268310000000     0.725860000000     0.134890000000    -0.094639   
C207     C      0.256260000000     0.741520000000     0.224680000000    -0.0371801  
C208     C      0.246100000000     0.752520000000     0.260400000000    -0.0325717  
C209     C      0.270870000000     0.754700000000     0.196330000000    -0.00598555 
C210     C      0.304890000000     0.748800000000     0.144290000000    -0.0946216  
C211     C      0.250400000000     0.776960000000     0.268880000000    -0.0140691  
C212     C      0.237290000000     0.776520000000     0.345470000000    -0.105101   
C213     C      0.265180000000     0.790100000000     0.240740000000    -0.0326226  
C214     C      0.226250000000     0.787540000000     0.380180000000     0.0772047  
C215     C      0.219380000000     0.823170000000     0.339460000000     0.15196    
C216     C      0.275220000000     0.779130000000     0.204860000000    -0.0373063  
C217     C      0.281480000000     0.743010000000     0.158040000000     0.0492226  
C218     C      0.239280000000     0.788730000000     0.306640000000     0.0653629  
C219     C      0.210110000000     0.848580000000     0.333350000000    -0.216376   
C220     C      0.444300000000     0.683310000000     0.024610000000    -0.132586   
C221     C      0.600630000000     0.703690000000     0.985570000000     0.0742283  
C222     C      0.597710000000     0.662450000000     0.967300000000     0.0741928  
C223     C      0.575420000000     0.705650000000     0.986340000000    -0.0942344  
C224     C      0.521640000000     0.706650000000     0.963300000000    -0.0382875  
C225     C      0.496380000000     0.707760000000     0.965530000000    -0.0314976  
C226     C      0.534220000000     0.686820000000     0.980310000000    -0.00457715 
C227     C      0.572490000000     0.663750000000     0.967930000000    -0.0945788  
C228     C      0.483200000000     0.689120000000     0.985060000000    -0.01631    
C229     C      0.442650000000     0.697410000000     0.952180000000    -0.105287   
C230     C      0.495810000000     0.669360000000     0.002200000000    -0.0289982  
C231     C      0.417460000000     0.697220000000     0.954310000000     0.0773457  
C232     C      0.418850000000     0.683420000000     0.026380000000     0.154745   
C233     C      0.521010000000     0.668210000000     0.999820000000    -0.0408664  
C234     C      0.561030000000     0.685460000000     0.977900000000     0.0488964  
C235     C      0.456370000000     0.690100000000     0.987350000000     0.0657785  
C236     C      0.407430000000     0.676160000000     0.068380000000    -0.218562   
C237     C      0.260140000000     0.221490000000     0.629180000000    -0.132129   
C238     C      0.310800000000     0.315960000000     0.838480000000     0.0745046  
C239     C      0.304440000000     0.280000000000     0.877710000000     0.0740543  
C240     C      0.300920000000     0.305520000000     0.801920000000    -0.0947501  
C241     C      0.266360000000     0.284390000000     0.737260000000    -0.0368911  
C242     C      0.255790000000     0.274010000000     0.701210000000    -0.0324121  
C243     C      0.281090000000     0.270680000000     0.764820000000    -0.00583702 
C244     C      0.294260000000     0.269040000000     0.841800000000    -0.0941825  
C245     C      0.259470000000     0.249580000000     0.691900000000    -0.0137121  
C246     C      0.224400000000     0.244890000000     0.641590000000    -0.104515   
C247     C      0.274160000000     0.235830000000     0.719460000000    -0.0324991  
C248     C      0.213740000000     0.234450000000     0.605850000000     0.0781831  
C249     C      0.249050000000     0.211030000000     0.593180000000     0.152873   
C250     C      0.284890000000     0.246270000000     0.755400000000    -0.0371818  
C251     C      0.292300000000     0.281830000000     0.803260000000     0.0493743  
C252     C      0.247860000000     0.238490000000     0.653770000000     0.0656726  
C253     C      0.263930000000     0.193180000000     0.568030000000    -0.21762    
C254     C      0.235060000000     0.218280000000     0.304370000000    -0.133537   
C255     C      0.282510000000     0.309140000000     0.091720000000     0.0745457  
C256     C      0.321020000000     0.301850000000     0.122830000000     0.0745053  
C257     C      0.271070000000     0.299200000000     0.127370000000    -0.0941852  
C258     C      0.252360000000     0.288410000000     0.217100000000    -0.0372209  
C259     C      0.241200000000     0.277130000000     0.251820000000    -0.032284   
C260     C      0.273180000000     0.278400000000     0.198570000000    -0.00576424 
C261     C      0.310200000000     0.291690000000     0.158830000000    -0.0943165  
C262     C      0.250490000000     0.255500000000     0.268480000000    -0.0143579  
C263     C      0.230480000000     0.256050000000     0.340150000000    -0.105042   
C264     C      0.271350000000     0.245570000000     0.250020000000    -0.0323457  
C265     C      0.219860000000     0.244030000000     0.374440000000     0.0769878  
C266     C      0.224120000000     0.206430000000     0.339070000000     0.154286   
C267     C      0.282590000000     0.256910000000     0.215530000000    -0.0372993  
C268     C      0.284940000000     0.290090000000     0.161300000000     0.0496167  
C269     C      0.238450000000     0.243170000000     0.304800000000     0.0662606  
C270     C      0.221040000000     0.179450000000     0.335410000000    -0.218763   
C271     C      0.451670000000     0.328180000000     0.937430000000    -0.133223   
C272     C      0.603810000000     0.332860000000     0.004190000000     0.0745253  
C273     C      0.607040000000     0.300690000000     0.955080000000     0.0734917  
C274     C      0.578640000000     0.330730000000     0.004220000000    -0.0940757  
C275     C      0.526570000000     0.314270000000     0.013850000000    -0.0363863  
C276     C      0.501310000000     0.314440000000     0.011560000000    -0.0312492  
C277     C      0.540520000000     0.311850000000     0.976660000000    -0.00683348 
C278     C      0.581880000000     0.298130000000     0.954190000000    -0.0943802  
C279     C      0.489410000000     0.312280000000     0.972020000000    -0.0153587  
C280     C      0.447870000000     0.302980000000     0.999400000000    -0.105867   
C281     C      0.503340000000     0.309270000000     0.934950000000    -0.0323244  
C282     C      0.422890000000     0.306380000000     0.998080000000     0.0770062  
C283     C      0.426390000000     0.331260000000     0.936360000000     0.154467   
C284     C      0.528610000000     0.309000000000     0.937260000000    -0.0373257  
C285     C      0.567340000000     0.313380000000     0.978700000000     0.0484346  
C286     C      0.462620000000     0.314270000000     0.969360000000     0.066735   
C287     C      0.416090000000     0.346040000000     0.899870000000    -0.218297   
C288     C      0.335590000000     0.574190000000     0.948090000000    -0.13309    
C289     C      0.312460000000     0.419620000000     0.979400000000     0.0741673  
C290     C      0.351450000000     0.421550000000     0.011170000000     0.0748422  
C291     C      0.310740000000     0.444670000000     0.979600000000    -0.0945958  
C292     C      0.308240000000     0.497730000000     0.005010000000    -0.0363308  
C293     C      0.307510000000     0.522830000000     0.002470000000    -0.0317648  
C294     C      0.329200000000     0.485130000000     0.993120000000    -0.00703365 
C295     C      0.350420000000     0.446620000000     0.011510000000    -0.0939852  
C296     C      0.327620000000     0.535790000000     0.987500000000    -0.0153114  
C297     C      0.317990000000     0.576180000000     0.017890000000    -0.104375   
C298     C      0.348550000000     0.523170000000     0.975570000000    -0.032671   
C299     C      0.318470000000     0.601190000000     0.015210000000     0.0777134  
C300     C      0.335650000000     0.599470000000     0.945630000000     0.152378   
C301     C      0.349360000000     0.498130000000     0.978500000000    -0.0374204  
C302     C      0.330010000000     0.458480000000     0.995180000000     0.0487186  
C303     C      0.326920000000     0.562400000000     0.984400000000     0.0649917  
C304     C      0.345220000000     0.610620000000     0.904860000000    -0.217273   
H1       H      0.161970000000     0.113060000000     0.537300000000     0.0276559  
H2       H      0.212510000000     0.910800000000     0.535790000000     0.0285616  
H3       H      0.153470000000     0.036520000000     0.491790000000     0.0376349  
H4       H      0.229680000000     0.989640000000     0.502060000000     0.0361222  
H5       H      0.214930000000     0.953940000000     0.542000000000     0.0554616  
H6       H      0.231190000000     0.033470000000     0.506620000000     0.037398   
H7       H      0.164660000000     0.961830000000     0.438140000000     0.060632   
H8       H      0.162050000000     0.069440000000     0.540920000000     0.0529707  
H9       H      0.224760000000     0.068190000000     0.459260000000     0.052258   
H10      H      0.151920000000     0.992800000000     0.488510000000     0.0358993  
H11      H      0.224320000000     0.111840000000     0.456870000000     0.0267309  
H12      H      0.142280000000     0.905200000000     0.435350000000     0.0896152  
H13      H      0.149370000000     0.929950000000     0.401210000000     0.0692983  
H14      H      0.168170000000     0.903970000000     0.399300000000     0.0887656  
H15      H      0.907320000000     0.791770000000     0.518390000000     0.0294357  
H16      H      0.103330000000     0.851140000000     0.526510000000     0.0269542  
H17      H      0.986130000000     0.778600000000     0.471570000000     0.0374567  
H18      H      0.028330000000     0.857320000000     0.468350000000     0.0360907  
H19      H      0.059930000000     0.848210000000     0.522940000000     0.0557647  
H20      H      0.984270000000     0.856150000000     0.464460000000     0.0382354  
H21      H      0.065770000000     0.791100000000     0.431840000000     0.0608288  
H22      H      0.951250000000     0.790180000000     0.516860000000     0.0533638  
H23      H      0.951240000000     0.843320000000     0.416160000000     0.0529646  
H24      H      0.030330000000     0.779820000000     0.476350000000     0.0357952  
H25      H      0.907310000000     0.844570000000     0.418780000000     0.0279723  
H26      H      0.127240000000     0.778400000000     0.449870000000     0.0894686  
H27      H      0.102330000000     0.774040000000     0.414490000000     0.0702358  
H28      H      0.123450000000     0.797520000000     0.402820000000     0.0881779  
H29      H      0.857190000000     0.903500000000     0.531970000000     0.028252   
H30      H      0.810050000000     0.103990000000     0.536280000000     0.0273515  
H31      H      0.860610000000     0.978740000000     0.474900000000     0.0384672  
H32      H      0.785920000000     0.024980000000     0.505740000000     0.0369534  
H33      H      0.807200000000     0.060800000000     0.542770000000     0.0562912  
H34      H      0.785440000000     0.981010000000     0.511890000000     0.0384506  
H35      H      0.840300000000     0.052820000000     0.420050000000     0.061744   
H36      H      0.856080000000     0.947160000000     0.532790000000     0.0536715  
H37      H      0.789510000000     0.945570000000     0.460530000000     0.0538548  
H38      H      0.861080000000     0.022510000000     0.468860000000     0.0366414  
H39      H      0.791240000000     0.901830000000     0.460090000000     0.0292376  
H40      H      0.863040000000     0.108810000000     0.407670000000     0.091603   
H41      H      0.850230000000     0.084750000000     0.377530000000     0.0707421  
H42      H      0.832740000000     0.111330000000     0.384480000000     0.0900196  
H43      H      0.110800000000     0.205720000000     0.538330000000     0.0297988  
H44      H      0.916770000000     0.151630000000     0.478270000000     0.027205   
H45      H      0.032860000000     0.230030000000     0.506930000000     0.0376835  
H46      H      0.991580000000     0.165900000000     0.424580000000     0.0360851  
H47      H      0.960000000000     0.155530000000     0.475480000000     0.0554107  
H48      H      0.035610000000     0.167870000000     0.424800000000     0.0377761  
H49      H      0.953040000000     0.232060000000     0.462540000000     0.0610066  
H50      H      0.066970000000     0.207400000000     0.535170000000     0.0534537  
H51      H      0.069780000000     0.191580000000     0.400500000000     0.0526222  
H52      H      0.988760000000     0.227490000000     0.508000000000     0.0358219  
H53      H      0.113650000000     0.189580000000     0.405080000000     0.0265221  
H54      H      0.893710000000     0.237050000000     0.494940000000     0.0897793  
H55      H      0.916390000000     0.251270000000     0.463330000000     0.0708716  
H56      H      0.893100000000     0.234760000000     0.436810000000     0.0932902  
H57      H      0.761480000000     0.811360000000     0.566580000000     0.0273875  
H58      H      0.716720000000     0.742370000000     0.909230000000     0.0282113  
H59      H      0.731060000000     0.756550000000     0.660000000000     0.0374106  
H60      H      0.768140000000     0.762930000000     0.803960000000     0.0367575  
H61      H      0.733030000000     0.764110000000     0.849380000000     0.0557518  
H62      H      0.787290000000     0.783030000000     0.743770000000     0.0381129  
H63      H      0.717900000000     0.704110000000     0.767690000000     0.0608892  
H64      H      0.740660000000     0.794850000000     0.628250000000     0.0528605  
H65      H      0.809500000000     0.772700000000     0.680850000000     0.0531948  
H66      H      0.711230000000     0.737470000000     0.720620000000     0.0355246  
H67      H      0.829660000000     0.789950000000     0.619390000000     0.0298228  
H68      H      0.678050000000     0.674340000000     0.834530000000     0.0894039  
H69      H      0.698110000000     0.670470000000     0.790710000000     0.0706927  
H70      H      0.708160000000     0.661490000000     0.842630000000     0.093404   
H71      H      0.753440000000     0.698050000000     0.065780000000     0.0280564  
H72      H      0.797640000000     0.823370000000     0.345670000000     0.0293501  
H73      H      0.780060000000     0.708780000000     0.203890000000     0.0377394  
H74      H      0.743170000000     0.782200000000     0.265220000000     0.0370229  
H75      H      0.780030000000     0.804530000000     0.283900000000     0.0561795  
H76      H      0.724470000000     0.763410000000     0.203130000000     0.0385621  
H77      H      0.791200000000     0.735080000000     0.340780000000     0.0609082  
H78      H      0.772760000000     0.716030000000     0.127730000000     0.0533601  
H79      H      0.702460000000     0.726890000000     0.184010000000     0.0535135  
H80      H      0.799220000000     0.728060000000     0.265210000000     0.0358378  
H81      H      0.683770000000     0.709150000000     0.121340000000     0.0290097  
H82      H      0.801900000000     0.752090000000     0.442670000000     0.0899199  
H83      H      0.810620000000     0.729850000000     0.404750000000     0.070529   
H84      H      0.832050000000     0.752410000000     0.418950000000     0.0884967  
H85      H      0.840280000000     0.202680000000     0.620180000000     0.0268018  
H86      H      0.696520000000     0.304980000000     0.831120000000     0.0280763  
H87      H      0.794250000000     0.220250000000     0.736480000000     0.0377746  
H88      H      0.747590000000     0.295690000000     0.716710000000     0.0359812  
H89      H      0.715100000000     0.287080000000     0.769590000000     0.0555396  
H90      H      0.765070000000     0.275990000000     0.654660000000     0.0372871  
H91      H      0.781420000000     0.278230000000     0.839580000000     0.0607487  
H92      H      0.824740000000     0.223350000000     0.682500000000     0.0522819  
H93      H      0.759830000000     0.240950000000     0.611820000000     0.0528065  
H94      H      0.777100000000     0.240270000000     0.798530000000     0.0362297  
H95      H      0.776280000000     0.220800000000     0.549950000000     0.0281713  
H96      H      0.759460000000     0.286220000000     0.940170000000     0.0913159  
H97      H      0.786030000000     0.290390000000     0.908790000000     0.0702987  
H98      H      0.768780000000     0.316220000000     0.922960000000     0.0890329  
H99      H      0.835800000000     0.220710000000     0.344440000000     0.0263424  
H100     H      0.721550000000     0.262430000000     0.048370000000     0.0267404  
H101     H      0.737360000000     0.247770000000     0.295830000000     0.0378936  
H102     H      0.776500000000     0.245650000000     0.153590000000     0.0361957  
H103     H      0.739040000000     0.241370000000     0.108430000000     0.0554421  
H104     H      0.796210000000     0.225940000000     0.214310000000     0.0375652  
H105     H      0.725590000000     0.302370000000     0.188360000000     0.0611751  
H106     H      0.816130000000     0.238420000000     0.282320000000     0.0525291  
H107     H      0.748480000000     0.206770000000     0.321720000000     0.0532047  
H108     H      0.717470000000     0.267120000000     0.234980000000     0.0358329  
H109     H      0.768720000000     0.189390000000     0.383570000000     0.0283179  
H110     H      0.684780000000     0.331560000000     0.119390000000     0.0891312  
H111     H      0.703540000000     0.334960000000     0.165300000000     0.0707538  
H112     H      0.715070000000     0.344400000000     0.114650000000     0.093117   
H113     H      0.727890000000     0.606580000000     0.935250000000     0.0271937  
H114     H      0.730790000000     0.400070000000     0.012350000000     0.0275475  
H115     H      0.711280000000     0.528570000000     0.909930000000     0.0373904  
H116     H      0.712750000000     0.477520000000     0.040090000000     0.0361426  
H117     H      0.736400000000     0.442980000000     0.015940000000     0.05574    
H118     H      0.713150000000     0.521150000000     0.047270000000     0.0376347  
H119     H      0.683810000000     0.452680000000     0.916070000000     0.0609656  
H120     H      0.734480000000     0.563450000000     0.931700000000     0.0523507  
H121     H      0.684730000000     0.553670000000     0.036250000000     0.0530856  
H122     H      0.711890000000     0.484980000000     0.902760000000     0.0350783  
H123     H      0.679010000000     0.596840000000     0.039410000000     0.0286307  
H124     H      0.657820000000     0.399180000000     0.915320000000     0.0907209  
H125     H      0.668600000000     0.420960000000     0.877730000000     0.070076   
H126     H      0.683560000000     0.392670000000     0.880820000000     0.0877706  
H127     H      0.182220000000     0.786850000000     0.605340000000     0.0275172  
H128     H      0.326180000000     0.744530000000     0.876280000000     0.0286752  
H129     H      0.212130000000     0.776610000000     0.739540000000     0.0374705  
H130     H      0.299250000000     0.755080000000     0.738370000000     0.0366497  
H131     H      0.308630000000     0.764770000000     0.815390000000     0.0556208  
H132     H      0.281260000000     0.774060000000     0.675510000000     0.0376825  
H133     H      0.247790000000     0.716910000000     0.819190000000     0.0607854  
H134     H      0.200140000000     0.768530000000     0.668220000000     0.0524029  
H135     H      0.264820000000     0.810600000000     0.648180000000     0.0528244  
H136     H      0.230080000000     0.757100000000     0.801860000000     0.0358963  
H137     H      0.246550000000     0.827900000000     0.584510000000     0.0287083  
H138     H      0.257240000000     0.694310000000     0.921210000000     0.0882654  
H139     H      0.242990000000     0.688360000000     0.871230000000     0.069911   
H140     H      0.270890000000     0.673540000000     0.883220000000     0.0894458  
H141     H      0.332810000000     0.742390000000     0.099000000000     0.0269645  
H142     H      0.225160000000     0.777110000000     0.409450000000     0.0264866  
H143     H      0.286160000000     0.789930000000     0.183520000000     0.0372229  
H144     H      0.234590000000     0.741900000000     0.281070000000     0.0358448  
H145     H      0.244360000000     0.758480000000     0.349290000000     0.054943   
H146     H      0.252790000000     0.722590000000     0.219520000000     0.0375326  
H147     H      0.231350000000     0.821840000000     0.273890000000     0.0601665  
H148     H      0.315890000000     0.761680000000     0.161470000000     0.0524614  
H149     H      0.250000000000     0.721110000000     0.143800000000     0.0523619  
H150     H      0.269140000000     0.808870000000     0.246530000000     0.0353358  
H151     H      0.267880000000     0.701610000000     0.082420000000     0.0273193  
H152     H      0.219390000000     0.860930000000     0.355870000000     0.0878897  
H153     H      0.213640000000     0.855580000000     0.300680000000     0.0689065  
H154     H      0.190210000000     0.849130000000     0.338060000000     0.0869329  
H155     H      0.605880000000     0.645270000000     0.959710000000     0.0280305  
H156     H      0.407740000000     0.702700000000     0.925730000000     0.028401   
H157     H      0.530180000000     0.652820000000     0.013660000000     0.0395628  
H158     H      0.487180000000     0.723300000000     0.952310000000     0.0362624  
H159     H      0.451290000000     0.702700000000     0.922620000000     0.0553378  
H160     H      0.531290000000     0.721190000000     0.947800000000     0.0380371  
H161     H      0.454760000000     0.678100000000     0.052500000000     0.0611745  
H162     H      0.562060000000     0.647800000000     0.960510000000     0.0525601  
H163     H      0.567280000000     0.722730000000     0.994500000000     0.0530935  
H164     H      0.486180000000     0.654600000000     0.017040000000     0.0351425  
H165     H      0.611180000000     0.719600000000     0.992850000000     0.0282368  
H166     H      0.397210000000     0.659120000000     0.064480000000     0.0892623  
H167     H      0.421140000000     0.673030000000     0.093840000000     0.07097    
H168     H      0.395380000000     0.690700000000     0.079980000000     0.0926775  
H169     H      0.305480000000     0.269590000000     0.907000000000     0.0274434  
H170     H      0.195410000000     0.240040000000     0.598240000000     0.0296023  
H171     H      0.296330000000     0.235210000000     0.775600000000     0.0372618  
H172     H      0.244840000000     0.285240000000     0.680460000000     0.0364679  
H173     H      0.214040000000     0.257710000000     0.659960000000     0.0557047  
H174     H      0.262740000000     0.303150000000     0.743750000000     0.0379632  
H175     H      0.278560000000     0.216660000000     0.637610000000     0.0604523  
H176     H      0.287570000000     0.250800000000     0.844580000000     0.0527881  
H177     H      0.300230000000     0.315970000000     0.772700000000     0.0525836  
H178     H      0.277180000000     0.216900000000     0.713610000000     0.0356743  
H179     H      0.317170000000     0.334360000000     0.836100000000     0.0276817  
H180     H      0.265430000000     0.199140000000     0.534270000000     0.0874107  
H181     H      0.282710000000     0.191510000000     0.580550000000     0.0702452  
H182     H      0.255600000000     0.175060000000     0.569980000000     0.0901036  
H183     H      0.340630000000     0.302630000000     0.122040000000     0.0298963  
H184     H      0.214300000000     0.254940000000     0.401290000000     0.0269142  
H185     H      0.298450000000     0.248610000000     0.201710000000     0.0382052  
H186     H      0.225060000000     0.285130000000     0.265210000000     0.0366278  
H187     H      0.232890000000     0.275360000000     0.341810000000     0.0554141  
H188     H      0.244800000000     0.305060000000     0.204950000000     0.0381189  
H189     H      0.240750000000     0.208120000000     0.276710000000     0.0613135  
H190     H      0.321580000000     0.285170000000     0.184620000000     0.0532951  
H191     H      0.251500000000     0.298130000000     0.127830000000     0.0534246  
H192     H      0.279100000000     0.229060000000     0.262430000000     0.0358895  
H193     H      0.271180000000     0.315690000000     0.065830000000     0.0286402  
H194     H      0.201620000000     0.174580000000     0.338080000000     0.0923681  
H195     H      0.227330000000     0.172500000000     0.304150000000     0.0709818  
H196     H      0.231900000000     0.170190000000     0.360440000000     0.09226    
H197     H      0.617700000000     0.288690000000     0.935440000000     0.0285328  
H198     H      0.412370000000     0.297570000000     0.022780000000     0.0307895  
H199     H      0.538820000000     0.307280000000     0.907980000000     0.0376444  
H200     H      0.491120000000     0.316970000000     0.040670000000     0.0368004  
H201     H      0.455600000000     0.291680000000     0.024180000000     0.0566876  
H202     H      0.535200000000     0.316230000000     0.044750000000     0.0377034  
H203     H      0.462870000000     0.337070000000     0.913820000000     0.0611049  
H204     H      0.573890000000     0.284280000000     0.934420000000     0.0528892  
H205     H      0.568100000000     0.343070000000     0.023280000000     0.0526146  
H206     H      0.494690000000     0.307290000000     0.904070000000     0.0354649  
H207     H      0.611830000000     0.346760000000     0.023890000000     0.0265488  
H208     H      0.409440000000     0.363570000000     0.911920000000     0.091816   
H209     H      0.429860000000     0.349900000000     0.875000000000     0.0705833  
H210     H      0.401270000000     0.336040000000     0.883780000000     0.08869    
H211     H      0.367650000000     0.413030000000     0.023680000000     0.0273131  
H212     H      0.311650000000     0.610970000000     0.042530000000     0.0278156  
H213     H      0.365670000000     0.488900000000     0.968700000000     0.0374658  
H214     H      0.291110000000     0.532090000000     0.011670000000     0.0364656  
H215     H      0.311190000000     0.567700000000     0.046640000000     0.0553769  
H216     H      0.292480000000     0.488180000000     0.016620000000     0.0380862  
H217     H      0.342160000000     0.563630000000     0.921520000000     0.0607386  
H218     H      0.365560000000     0.456660000000     0.024400000000     0.0530001  
H219     H      0.294700000000     0.453170000000     0.966480000000     0.053043   
H220     H      0.364400000000     0.532700000000     0.964310000000     0.035639   
H221     H      0.297380000000     0.409530000000     0.966310000000     0.0285062  
H222     H      0.361880000000     0.621100000000     0.911690000000     0.0877932  
H223     H      0.350090000000     0.596860000000     0.880740000000     0.069849   
H224     H      0.331160000000     0.622230000000     0.889990000000     0.0892589  
In1      In     0.340130000000     0.335660000000     0.982130000000     2.40431    
In2      In     0.331670000000     0.686320000000     0.984780000000     2.41281    
In3      In     0.690710000000     0.328950000000     0.973900000000     2.41345    
In4      In     0.685060000000     0.675670000000     0.982150000000     2.40947    
In5      In     0.836270000000     0.176910000000     0.475210000000     2.40802    
In6      In     0.831570000000     0.827090000000     0.482920000000     2.41277    
In7      In     0.182870000000     0.837350000000     0.483030000000     2.40746    
In8      In     0.188280000000     0.188200000000     0.481610000000     2.40564    
N1       N      0.186920000000     0.910810000000     0.483850000000    -0.210185   
N2       N      0.192960000000     0.115520000000     0.496470000000    -0.196426   
N3       N      0.110280000000     0.823100000000     0.481010000000    -0.211737   
N4       N      0.904240000000     0.818510000000     0.469130000000    -0.195076   
N5       N      0.827100000000     0.103910000000     0.474640000000    -0.211571   
N6       N      0.824480000000     0.899600000000     0.495500000000    -0.195855   
N7       N      0.909170000000     0.189460000000     0.472360000000    -0.210333   
N8       N      0.115310000000     0.197270000000     0.472070000000    -0.19566    
N9       N      0.707550000000     0.710490000000     0.873980000000    -0.211109   
N10      N      0.797010000000     0.801750000000     0.588550000000    -0.195829   
N11      N      0.804900000000     0.790470000000     0.379760000000    -0.211302   
N12      N      0.717260000000     0.702450000000     0.089060000000    -0.196112   
N13      N      0.727800000000     0.301990000000     0.871970000000    -0.210444   
N14      N      0.809430000000     0.210310000000     0.580670000000    -0.197138   
N15      N      0.713450000000     0.294850000000     0.082710000000    -0.210741   
N16      N      0.803650000000     0.203900000000     0.368470000000    -0.196207   
N17      N      0.703930000000     0.401060000000     0.962470000000    -0.211282   
N18      N      0.702750000000     0.604730000000     0.987170000000    -0.195745   
N19      N      0.297440000000     0.718770000000     0.883720000000    -0.210845   
N20      N      0.213120000000     0.808620000000     0.590410000000    -0.195355   
N21      N      0.217190000000     0.810540000000     0.377590000000    -0.212392   
N22      N      0.301600000000     0.720590000000     0.086410000000    -0.196617   
N23      N      0.405460000000     0.689960000000     0.990550000000    -0.210281   
N24      N      0.611620000000     0.682200000000     0.976540000000    -0.196274   
N25      N      0.225620000000     0.217520000000     0.581860000000    -0.210671   
N26      N      0.312450000000     0.303320000000     0.876050000000    -0.196763   
N27      N      0.216820000000     0.219470000000     0.374500000000    -0.210954   
N28      N      0.307280000000     0.310230000000     0.089380000000    -0.194704   
N29      N      0.412140000000     0.320970000000     0.967920000000    -0.209521   
N30      N      0.617840000000     0.318130000000     0.979460000000    -0.196873   
N31      N      0.327460000000     0.612940000000     0.979920000000    -0.21158    
N32      N      0.332800000000     0.408220000000     0.994540000000    -0.196911   
O1       O      0.306530000000     0.326450000000     0.021330000000    -0.500893   
O2       O      0.340970000000     0.320540000000     0.049910000000    -0.492842   
O3       O      0.328460000000     0.335740000000     0.912210000000    -0.504186   
O4       O      0.318910000000     0.370750000000     0.974440000000    -0.50052    
O5       O      0.374600000000     0.314900000000     0.998990000000    -0.492203   
O6       O      0.353130000000     0.372410000000     0.005170000000    -0.507322   
O7       O      0.324550000000     0.303110000000     0.946810000000    -0.507368   
O8       O      0.376520000000     0.340700000000     0.949380000000    -0.510999   
O9       O      0.301270000000     0.688910000000     0.935510000000    -0.518479   
O10      O      0.328120000000     0.715900000000     0.934190000000    -0.502115   
O11      O      0.300840000000     0.692850000000     0.031750000000    -0.503718   
O12      O      0.321970000000     0.649680000000     0.013180000000    -0.503216   
O13      O      0.368550000000     0.695220000000     0.956250000000    -0.497886   
O14      O      0.335980000000     0.650480000000     0.950560000000    -0.51912    
O15      O      0.332370000000     0.714340000000     0.037990000000    -0.506266   
O16      O      0.367600000000     0.681880000000     0.019580000000    -0.512697   
O17      O      0.702860000000     0.295620000000     0.011060000000    -0.50714    
O18      O      0.699950000000     0.328310000000     0.044830000000    -0.508633   
O19      O      0.693350000000     0.316880000000     0.904550000000    -0.502374   
O20      O      0.656230000000     0.308410000000     0.956010000000    -0.498774   
O21      O      0.711980000000     0.363080000000     0.989760000000    -0.504386   
O22      O      0.653020000000     0.337670000000     0.998900000000    -0.511304   
O23      O      0.725160000000     0.315380000000     0.942130000000    -0.514375   
O24      O      0.683760000000     0.365840000000     0.944390000000    -0.518482   
O25      O      0.718380000000     0.685850000000     0.021590000000    -0.505253   
O26      O      0.683820000000     0.691220000000     0.049430000000    -0.502457   
O27      O      0.690980000000     0.677850000000     0.910190000000    -0.511406   
O28      O      0.706820000000     0.643180000000     0.959960000000    -0.49907    
O29      O      0.650060000000     0.697610000000     0.986830000000    -0.499981   
O30      O      0.682680000000     0.638290000000     0.011970000000    -0.500551   
O31      O      0.700440000000     0.708240000000     0.946750000000    -0.507392   
O32      O      0.647190000000     0.660800000000     0.970100000000    -0.504897   
O33      O      0.803700000000     0.181730000000     0.430950000000    -0.500996   
O34      O      0.836710000000     0.198340000000     0.412790000000    -0.50211    
O35      O      0.838560000000     0.188200000000     0.545460000000    -0.505834   
O36      O      0.823710000000     0.141550000000     0.505730000000    -0.50846    
O37      O      0.868930000000     0.202080000000     0.471170000000    -0.502797   
O38      O      0.838310000000     0.140240000000     0.443580000000    -0.515666   
O39      O      0.807340000000     0.198400000000     0.510270000000    -0.506894   
O40      O      0.875550000000     0.164780000000     0.477420000000    -0.508769   
O41      O      0.821300000000     0.792510000000     0.448190000000    -0.522202   
O42      O      0.815920000000     0.825260000000     0.415360000000    -0.502829   
O43      O      0.831270000000     0.809930000000     0.549150000000    -0.495611   
O44      O      0.867520000000     0.809320000000     0.500160000000    -0.492352   
O45      O      0.811600000000     0.862550000000     0.471160000000    -0.495416   
O46      O      0.867380000000     0.834860000000     0.449490000000    -0.504807   
O47      O      0.797430000000     0.819870000000     0.522040000000    -0.508306   
O48      O      0.843270000000     0.863360000000     0.509740000000    -0.508287   
O49      O      0.181600000000     0.813700000000     0.542570000000    -0.506821   
O50      O      0.214170000000     0.832850000000     0.530300000000    -0.494454   
O51      O      0.197690000000     0.840760000000     0.415300000000    -0.519315   
O52      O      0.149850000000     0.816880000000     0.458330000000    -0.517586   
O53      O      0.198030000000     0.872940000000     0.508330000000    -0.496309   
O54      O      0.144390000000     0.842220000000     0.507480000000    -0.507009   
O55      O      0.202870000000     0.807660000000     0.446890000000    -0.511149   
O56      O      0.172310000000     0.874390000000     0.458330000000    -0.511201   
O57      O      0.200700000000     0.220920000000     0.442760000000    -0.510209   
O58      O      0.203370000000     0.186710000000     0.414180000000    -0.507479   
O59      O      0.192680000000     0.214960000000     0.536130000000    -0.49841    
O60      O      0.151390000000     0.197420000000     0.509500000000    -0.493068   
O61      O      0.206520000000     0.151910000000     0.470060000000    -0.495757   
O62      O      0.152930000000     0.189280000000     0.443360000000    -0.507935   
O63      O      0.221320000000     0.190600000000     0.525610000000    -0.51864    
O64      O      0.175700000000     0.152480000000     0.510230000000    -0.508104   


