data_structure

_audit_creation_method RASPA-1.0
_audit_creation_date 2023-5-22
_audit_author_name 'Poobodin Mano'

_cell_length_a    46.1159
_cell_length_b    45.1968
_cell_length_c    44.1442
_cell_angle_alpha 90
_cell_angle_beta  90
_cell_angle_gamma 90
_cell_volume      92009.4

_symmetry_cell_setting          triclinic
_symmetry_space_group_name_Hall 'P 1'
_symmetry_space_group_name_H-M  'P 1'
_symmetry_Int_Tables_number     1

_symmetry_equiv_pos_as_xyz 'x,y,z'

loop_
_atom_site_label
_atom_site_type_symbol
_atom_site_fract_x
_atom_site_fract_y
_atom_site_fract_z
_atom_site_charge
C1       C      0.902960000000     0.411700000000     0.919650000000     0.418515   
C2       C      0.829500000000     0.345130000000     0.923130000000     0.419063   
C3       C      0.830920000000     0.410360000000     0.852350000000     0.438981   
C4       C      0.900010000000     0.341550000000     0.853450000000     0.444861   
C5       C      0.083470000000     0.592220000000     0.101300000000     0.444154   
C6       C      0.148910000000     0.590050000000     0.174490000000     0.444474   
C7       C      0.151070000000     0.661080000000     0.105370000000     0.440849   
C8       C      0.082630000000     0.660240000000     0.174910000000     0.422073   
C9       C      0.331330000000     0.842090000000     0.923940000000     0.418711   
C10      C      0.400290000000     0.908550000000     0.924800000000     0.447722   
C11      C      0.398820000000     0.840430000000     0.852270000000     0.446971   
C12      C      0.332360000000     0.912790000000     0.855080000000     0.440756   
C13      C      0.647620000000     0.164660000000     0.103090000000     0.442185   
C14      C      0.583100000000     0.087020000000     0.105890000000     0.41444    
C15      C      0.649530000000     0.088450000000     0.169740000000     0.413832   
C16      C      0.583700000000     0.164700000000     0.168800000000     0.43771    
C17      C      0.331540000000     0.410940000000     0.355280000000     0.416245   
C18      C      0.401330000000     0.341230000000     0.352370000000     0.414623   
C19      C      0.401160000000     0.409310000000     0.422150000000     0.440727   
C20      C      0.331780000000     0.337970000000     0.420360000000     0.446333   
C21      C      0.652240000000     0.593360000000     0.671230000000     0.414445   
C22      C      0.579090000000     0.660510000000     0.669760000000     0.41566    
C23      C      0.653270000000     0.658370000000     0.603220000000     0.442299   
C24      C      0.579340000000     0.592080000000     0.604000000000     0.41681    
C25      C      0.901150000000     0.842660000000     0.353520000000     0.442208   
C26      C      0.898950000000     0.911910000000     0.423990000000     0.42169    
C27      C      0.831450000000     0.909990000000     0.351950000000     0.443276   
C28      C      0.833680000000     0.840800000000     0.423660000000     0.414739   
C29      C      0.078540000000     0.158360000000     0.672620000000     0.416658   
C30      C      0.152870000000     0.157360000000     0.603370000000     0.412598   
C31      C      0.149300000000     0.094150000000     0.677410000000     0.413852   
C32      C      0.082290000000     0.093730000000     0.601100000000     0.438338   
C33      C      0.054750000000     0.031050000000     0.556820000000    -0.220198   
C34      C      0.907780000000     0.958390000000     0.447440000000     0.0809189  
C35      C      0.941550000000     0.919240000000     0.453230000000     0.0830622  
C36      C      0.925150000000     0.977010000000     0.465030000000    -0.0913823  
C37      C      0.974080000000     0.016110000000     0.487870000000    -0.0370791  
C38      C      0.992420000000     0.034230000000     0.504970000000    -0.0216168  
C39      C      0.970450000000     0.986080000000     0.495410000000     0.000211716
C40      C      0.959490000000     0.937260000000     0.470770000000    -0.0910813  
C41      C      0.007660000000     0.022710000000     0.529870000000    -0.0257753  
C42      C      0.019640000000     0.070410000000     0.556160000000    -0.127593   
C43      C      0.003880000000     0.992790000000     0.537560000000    -0.0213388  
C44      C      0.038400000000     0.087540000000     0.573770000000     0.0997077  
C45      C      0.073120000000     0.048760000000     0.574250000000     0.419928   
C46      C      0.985440000000     0.974720000000     0.520600000000    -0.0368971  
C47      C      0.951430000000     0.966570000000     0.476900000000     0.0532849  
C48      C      0.027610000000     0.041690000000     0.547750000000     0.111798   
C49      C      0.690290000000     0.690670000000     0.537480000000    -0.219594   
C50      C      0.820540000000     0.822920000000     0.472390000000     0.0777751  
C51      C      0.797270000000     0.803970000000     0.428590000000     0.079123   
C52      C      0.803740000000     0.804640000000     0.490930000000    -0.0924885  
C53      C      0.752400000000     0.776900000000     0.523960000000    -0.0379001  
C54      C      0.734610000000     0.758780000000     0.541650000000    -0.0223755  
C55      C      0.765100000000     0.766010000000     0.497250000000    -0.000868509
C56      C      0.780250000000     0.785270000000     0.446410000000    -0.0924487  
C57      C      0.729210000000     0.729300000000     0.533130000000    -0.0256051  
C58      C      0.709870000000     0.711620000000     0.583210000000    -0.127593   
C59      C      0.742260000000     0.718330000000     0.506610000000    -0.0217744  
C60      C      0.690920000000     0.693970000000     0.600020000000     0.100458   
C61      C      0.671670000000     0.673220000000     0.554920000000     0.41875    
C62      C      0.759930000000     0.736490000000     0.488850000000    -0.0372289  
C63      C      0.783310000000     0.785490000000     0.477980000000     0.0518675  
C64      C      0.709650000000     0.710230000000     0.551510000000     0.110938   
C65      C      0.289080000000     0.273320000000     0.443850000000    -0.218596   
C66      C      0.181780000000     0.200110000000     0.595560000000     0.0790232  
C67      C      0.178650000000     0.163570000000     0.557160000000     0.0778222  
C68      C      0.200040000000     0.217240000000     0.577460000000    -0.0920655  
C69      C      0.250650000000     0.241010000000     0.541290000000    -0.0370142  
C70      C      0.268040000000     0.259020000000     0.523110000000    -0.0218676  
C71      C      0.226960000000     0.225650000000     0.528840000000    -0.000204155
C72      C      0.196920000000     0.180150000000     0.538440000000    -0.0907776  
C73      C      0.262240000000     0.262050000000     0.492010000000    -0.0250076  
C74      C      0.288890000000     0.309670000000     0.483670000000    -0.126825   
C75      C      0.238850000000     0.246340000000     0.479420000000    -0.021404   
C76      C      0.305930000000     0.328070000000     0.465600000000     0.103748   
C77      C      0.306270000000     0.292210000000     0.426320000000     0.419845   
C78      C      0.221390000000     0.228360000000     0.497640000000    -0.036627   
C79      C      0.207820000000     0.207390000000     0.548480000000     0.0520634  
C80      C      0.280290000000     0.281890000000     0.472920000000     0.112093   
C81      C      0.450990000000     0.433400000000     0.482100000000    -0.220222   
C82      C      0.545460000000     0.586880000000     0.563810000000     0.0814043  
C83      C      0.559680000000     0.544880000000     0.592360000000     0.0799686  
C84      C      0.527640000000     0.569310000000     0.545620000000    -0.0907279  
C85      C      0.479990000000     0.529370000000     0.521450000000    -0.0373298  
C86      C      0.462660000000     0.511290000000     0.503220000000    -0.0219456  
C87      C      0.507340000000     0.519600000000     0.531410000000    -4.34422e-05
C88      C      0.542030000000     0.526670000000     0.574670000000    -0.091634   
C89      C      0.472220000000     0.482980000000     0.494620000000    -0.0256421  
C90      C      0.438500000000     0.475040000000     0.450750000000    -0.127651   
C91      C      0.499560000000     0.473230000000     0.504500000000    -0.0213909  
C92      C      0.421190000000     0.456440000000     0.433120000000     0.0997895  
C93      C      0.433400000000     0.415370000000     0.464130000000     0.419754   
C94      C      0.516930000000     0.491330000000     0.522630000000    -0.0365251  
C95      C      0.525830000000     0.538770000000     0.550840000000     0.0528228  
C96      C      0.453680000000     0.463590000000     0.475570000000     0.111637   
C97      C      0.804380000000     0.951570000000     0.286360000000    -0.218975   
C98      C      0.657270000000     0.060220000000     0.214420000000     0.0777306  
C99      C      0.693380000000     0.061640000000     0.176210000000     0.0781182  
C100     C      0.674790000000     0.042100000000     0.232370000000    -0.0920125  
C101     C      0.710080000000     0.991430000000     0.258380000000    -0.0373521  
C102     C      0.728160000000     0.974020000000     0.276500000000    -0.0224268  
C103     C      0.721540000000     0.014830000000     0.241120000000    -0.000762   
C104     C      0.711420000000     0.043470000000     0.193510000000    -0.0919926  
C105     C      0.758130000000     0.979540000000     0.277710000000    -0.0252939  
C106     C      0.768950000000     0.953090000000     0.326350000000    -0.127887   
C107     C      0.769620000000     0.002850000000     0.260400000000    -0.0218885  
C108     C      0.787430000000     0.936020000000     0.344300000000     0.101154   
C109     C      0.822330000000     0.934380000000     0.304820000000     0.419502   
C110     C      0.751540000000     0.020330000000     0.242370000000    -0.036697   
C111     C      0.702310000000     0.033590000000     0.222060000000     0.0517802  
C112     C      0.777360000000     0.961130000000     0.297030000000     0.111536   
C113     C      0.523210000000     0.212640000000     0.191420000000    -0.219434   
C114     C      0.446110000000     0.316440000000     0.344400000000     0.0805092  
C115     C      0.410150000000     0.316140000000     0.306010000000     0.0826164  
C116     C      0.464580000000     0.299550000000     0.326240000000    -0.0899841  
C117     C      0.505140000000     0.278010000000     0.276910000000    -0.0372932  
C118     C      0.523320000000     0.260890000000     0.258600000000    -0.0217007  
C119     C      0.475070000000     0.272780000000     0.277530000000     0.000565493
C120     C      0.428110000000     0.299380000000     0.287200000000    -0.0904486  
C121     C      0.511830000000     0.238280000000     0.240360000000    -0.0254358  
C122     C      0.557320000000     0.208920000000     0.232490000000    -0.127611   
C123     C      0.481790000000     0.233130000000     0.240830000000    -0.0208264  
C124     C      0.574690000000     0.190760000000     0.214450000000     0.100971   
C125     C      0.541150000000     0.194580000000     0.173840000000     0.42019    
C126     C      0.463630000000     0.250110000000     0.259260000000    -0.0362764  
C127     C      0.455710000000     0.290810000000     0.297210000000     0.0531131  
C128     C      0.531100000000     0.219850000000     0.221130000000     0.112133   
C129     C      0.300980000000     0.980370000000     0.822550000000    -0.218496   
C130     C      0.160410000000     0.048290000000     0.700860000000     0.0801993  
C131     C      0.190130000000     0.090140000000     0.710010000000     0.0784442  
C132     C      0.178200000000     0.030800000000     0.719130000000    -0.0902691  
C133     C      0.210590000000     0.001950000000     0.770700000000    -0.0372386  
C134     C      0.228910000000     0.983860000000     0.787790000000    -0.0214317  
C135     C      0.222000000000     0.024670000000     0.752440000000     0.000299064
C136     C      0.208250000000     0.073350000000     0.728680000000    -0.0911398  
C137     C      0.259050000000     0.988230000000     0.787300000000    -0.0251903  
C138     C      0.274690000000     0.937930000000     0.804420000000    -0.127503   
C139     C      0.270510000000     0.011200000000     0.769520000000    -0.021424   
C140     C      0.293170000000     0.919710000000     0.821110000000     0.101825   
C141     C      0.318930000000     0.961560000000     0.839320000000     0.420288   
C142     C      0.252210000000     0.029120000000     0.752160000000    -0.0362972  
C143     C      0.202540000000     0.043210000000     0.733320000000     0.0522156  
C144     C      0.278490000000     0.968620000000     0.805000000000     0.112263   
C145     C      0.436870000000     0.775360000000     0.822340000000    -0.219706   
C146     C      0.558540000000     0.707550000000     0.680500000000     0.0780111  
C147     C      0.545010000000     0.665760000000     0.709730000000     0.0781023  
C148     C      0.540340000000     0.725670000000     0.697680000000    -0.0921146  
C149     C      0.513710000000     0.761470000000     0.748600000000    -0.037413   
C150     C      0.495900000000     0.779250000000     0.766630000000    -0.0223458  
C151     C      0.505070000000     0.732680000000     0.740520000000    -0.000687881
C152     C      0.526700000000     0.683250000000     0.727460000000    -0.0921091  
C153     C      0.469110000000     0.768590000000     0.777160000000    -0.0257128  
C154     C      0.446150000000     0.817260000000     0.790150000000    -0.127648   
C155     C      0.460410000000     0.739870000000     0.769060000000    -0.0218689  
C156     C      0.428640000000     0.834540000000     0.808930000000     0.10125    
C157     C      0.419640000000     0.793270000000     0.840840000000     0.418877   
C158     C      0.478130000000     0.722150000000     0.750890000000    -0.0370508  
C159     C      0.524200000000     0.713640000000     0.721610000000     0.0516732  
C160     C      0.450430000000     0.787300000000     0.796740000000     0.111537   
C161     C      0.424710000000     0.956630000000     0.986790000000    -0.217945   
C162     C      0.576450000000     0.054410000000     0.064250000000     0.082455   
C163     C      0.537710000000     0.063320000000     0.098400000000     0.0826865  
C164     C      0.558820000000     0.035900000000     0.046840000000    -0.0900438  
C165     C      0.520300000000     0.985570000000     0.024410000000    -0.0365682  
C166     C      0.502090000000     0.968180000000     0.006420000000    -0.0218155  
C167     C      0.510470000000     0.012590000000     0.036350000000     0.000614808
C168     C      0.519440000000     0.045110000000     0.081420000000    -0.0900634  
C169     C      0.473670000000     0.977490000000     0.999810000000    -0.0235142  
C170     C      0.465320000000     0.944260000000     0.955020000000    -0.125883   
C171     C      0.463880000000     0.004540000000     0.011800000000    -0.0203369  
C172     C      0.446850000000     0.927390000000     0.936880000000     0.105104   
C173     C      0.406740000000     0.939680000000     0.968110000000     0.425468   
C174     C      0.482040000000     0.021840000000     0.029910000000    -0.0352122  
C175     C      0.529860000000     0.031280000000     0.055190000000     0.0539435  
C176     C      0.454360000000     0.959190000000     0.980350000000     0.113437   
C177     C      0.961000000000     0.819130000000     0.304270000000    -0.2185     
C178     C      0.041230000000     0.666140000000     0.206330000000     0.0859514  
C179     C      0.072150000000     0.707030000000     0.196830000000     0.0834087  
C180     C      0.023210000000     0.683770000000     0.224240000000    -0.0898098  
C181     C      0.980260000000     0.730120000000     0.245580000000    -0.0365709  
C182     C      0.962270000000     0.748210000000     0.263070000000    -0.0206701  
C183     C      0.010590000000     0.732980000000     0.247170000000     0.00123048 
C184     C      0.054590000000     0.725310000000     0.214560000000    -0.0897134  
C185     C      0.974180000000     0.769640000000     0.282500000000    -0.0247765  
C186     C      0.930660000000     0.777280000000     0.315680000000    -0.127005   
C187     C      0.004490000000     0.772520000000     0.284100000000    -0.0202802  
C188     C      0.912970000000     0.795680000000     0.333090000000     0.102437   
C189     C      0.942820000000     0.837020000000     0.321770000000     0.423636   
C190     C      0.022490000000     0.754390000000     0.266660000000    -0.0358639  
C191     C      0.029720000000     0.713780000000     0.228480000000     0.0545992  
C192     C      0.955050000000     0.788910000000     0.301040000000     0.113172   
C193     C      0.212260000000     0.707860000000     0.082240000000    -0.219386   
C194     C      0.286870000000     0.816740000000     0.931790000000     0.0830962  
C195     C      0.323200000000     0.815840000000     0.969780000000     0.0858121  
C196     C      0.268820000000     0.799030000000     0.949580000000    -0.0904262  
C197     C      0.229000000000     0.775170000000     0.998310000000    -0.0362415  
C198     C      0.211220000000     0.757170000000     0.016120000000    -0.0213551  
C199     C      0.259170000000     0.770570000000     0.997450000000     0.00108097 
C200     C      0.305650000000     0.798260000000     0.988250000000    -0.0892373  
C201     C      0.223190000000     0.734290000000     0.033660000000    -0.0249599  
C202     C      0.178200000000     0.704040000000     0.041130000000    -0.126487   
C203     C      0.253320000000     0.729750000000     0.032960000000    -0.0206806  
C204     C      0.160820000000     0.685910000000     0.059180000000     0.101408   
C205     C      0.194280000000     0.689860000000     0.099840000000     0.420695   
C206     C      0.271090000000     0.747610000000     0.014990000000    -0.0360621  
C207     C      0.278090000000     0.789540000000     0.978230000000     0.0544377  
C208     C      0.204300000000     0.715170000000     0.052580000000     0.112449   
C209     C      0.175180000000     0.547710000000     0.239960000000    -0.219041   
C210     C      0.322850000000     0.439130000000     0.310820000000     0.0800798  
C211     C      0.286900000000     0.436520000000     0.349120000000     0.0794106  
C212     C      0.304910000000     0.457010000000     0.293110000000    -0.0919098  
C213     C      0.269140000000     0.507220000000     0.267550000000    -0.0367498  
C214     C      0.250970000000     0.524540000000     0.249470000000    -0.0218008  
C215     C      0.257820000000     0.483800000000     0.284890000000    -0.000266321
C216     C      0.268450000000     0.454520000000     0.332080000000    -0.0914669  
C217     C      0.221010000000     0.519000000000     0.248460000000    -0.0250633  
C218     C      0.209980000000     0.544600000000     0.199470000000    -0.126799   
C219     C      0.209590000000     0.495820000000     0.265980000000    -0.0214742  
C220     C      0.191780000000     0.562000000000     0.181560000000     0.104942   
C221     C      0.157530000000     0.565310000000     0.221560000000     0.420868   
C222     C      0.227790000000     0.478350000000     0.283910000000    -0.0364564  
C223     C      0.277290000000     0.464940000000     0.303620000000     0.0525595  
C224     C      0.201790000000     0.537300000000     0.229050000000     0.112797   
C225     C      0.949540000000     0.316050000000     0.793830000000    -0.219055   
C226     C      0.047770000000     0.163530000000     0.715510000000     0.0777726  
C227     C      0.054170000000     0.203740000000     0.681670000000     0.0789574  
C228     C      0.029270000000     0.180570000000     0.733540000000    -0.0919317  
C229     C      0.004860000000     0.226590000000     0.776570000000    -0.0371924  
C230     C      0.987410000000     0.244820000000     0.794540000000    -0.0223858  
C231     C      0.004090000000     0.228790000000     0.744780000000    -0.000581934
C232     C      0.035990000000     0.221450000000     0.699270000000    -0.0921693  
C233     C      0.968990000000     0.265830000000     0.781140000000    -0.0253799  
C234     C      0.935330000000     0.274690000000     0.824780000000    -0.127641   
C235     C      0.968010000000     0.267920000000     0.749420000000    -0.021616   
C236     C      0.918350000000     0.293770000000     0.842220000000     0.102489   
C237     C      0.932610000000     0.334650000000     0.811900000000     0.423805   
C238     C      0.985240000000     0.249530000000     0.731450000000    -0.036439   
C239     C      0.023240000000     0.209990000000     0.725610000000     0.0519214  
C240     C      0.951060000000     0.285750000000     0.800170000000     0.112801   
C241     C      0.676060000000     0.205920000000     0.037910000000    -0.218802   
C242     C      0.815170000000     0.328020000000     0.971750000000     0.0781084  
C243     C      0.788900000000     0.313170000000     0.928140000000     0.0790842  
C244     C      0.796960000000     0.311170000000     0.990240000000    -0.09226    
C245     C      0.766400000000     0.259080000000     0.020030000000    -0.0377157  
C246     C      0.748330000000     0.241340000000     0.037780000000    -0.0221915  
C247     C      0.754840000000     0.276570000000     0.996630000000    -0.000535471
C248     C      0.770200000000     0.296210000000     0.945960000000    -0.0920823  
C249     C      0.718230000000     0.240740000000     0.032640000000    -0.0251587  
C250     C      0.703930000000     0.217900000000     0.082320000000    -0.127246   
C251     C      0.706660000000     0.258430000000     0.009380000000    -0.0215816  
C252     C      0.686280000000     0.199010000000     0.099230000000     0.101397   
C253     C      0.658710000000     0.187230000000     0.055460000000     0.420868   
C254     C      0.724760000000     0.276090000000     0.991550000000    -0.0367433  
C255     C      0.774170000000     0.294960000000     0.977400000000     0.0520161  
C256     C      0.699090000000     0.221410000000     0.051210000000     0.111606   
C257     C      0.796500000000     0.443120000000     0.785280000000    -0.218411   
C258     C      0.670480000000     0.579540000000     0.719510000000     0.0782972  
C259     C      0.687670000000     0.555400000000     0.675320000000     0.0789168  
C260     C      0.688100000000     0.561750000000     0.737690000000    -0.0923779  
C261     C      0.713750000000     0.508810000000     0.770590000000    -0.0374656  
C262     C      0.731130000000     0.490430000000     0.788430000000    -0.0222148  
C263     C      0.724450000000     0.520820000000     0.743430000000    -0.000628411
C264     C      0.705630000000     0.537310000000     0.692800000000    -0.0919346  
C265     C      0.759650000000     0.483650000000     0.779560000000    -0.0250578  
C266     C      0.777770000000     0.466400000000     0.830210000000    -0.127237   
C267     C      0.770360000000     0.495710000000     0.752400000000    -0.021471   
C268     C      0.795460000000     0.448070000000     0.847710000000     0.101657   
C269     C      0.813980000000     0.425090000000     0.803400000000     0.420857   
C270     C      0.752950000000     0.514040000000     0.734530000000    -0.0366752  
C271     C      0.705900000000     0.540240000000     0.724400000000     0.0520998  
C272     C      0.778180000000     0.464140000000     0.798580000000     0.111753   
C273     C      0.025910000000     0.569490000000     0.048820000000    -0.219777   
C274     C      0.944280000000     0.416990000000     0.951370000000     0.0802241  
C275     C      0.916530000000     0.459150000000     0.937860000000     0.0799966  
C276     C      0.962820000000     0.434530000000     0.968820000000    -0.0917944  
C277     C      0.007210000000     0.480040000000     0.990050000000    -0.0369933  
C278     C      0.025020000000     0.497940000000     0.007970000000    -0.0220967  
C279     C      0.976980000000     0.484000000000     0.990070000000    -0.000284321
C280     C      0.934560000000     0.477310000000     0.955170000000    -0.0916394  
C281     C      0.012990000000     0.520170000000     0.026390000000    -0.025129   
C282     C      0.055730000000     0.527440000000     0.060910000000    -0.126861   
C283     C      0.982720000000     0.524020000000     0.026480000000    -0.0215153  
C284     C      0.072820000000     0.545630000000     0.079230000000     0.101072   
C285     C      0.043370000000     0.587100000000     0.067360000000     0.420506   
C286     C      0.964950000000     0.506180000000     0.008510000000    -0.0370208  
C287     C      0.957970000000     0.465060000000     0.971040000000     0.0527138  
C288     C      0.031830000000     0.539260000000     0.045530000000     0.11163    
F1       F      0.099180000000     0.037230000000     0.582460000000    -0.443351   
F2       F      0.653200000000     0.654830000000     0.540040000000    -0.444869   
F3       F      0.314360000000     0.282730000000     0.398350000000    -0.44445    
F4       F      0.431490000000     0.386260000000     0.471600000000    -0.443251   
F5       F      0.848280000000     0.925630000000     0.293280000000    -0.438026   
F6       F      0.532390000000     0.188200000000     0.145180000000    -0.440489   
F7       F      0.340340000000     0.974110000000     0.856140000000    -0.439843   
F8       F      0.407120000000     0.780560000000     0.865490000000    -0.445778   
F9       F      0.378180000000     0.937910000000     0.975520000000    -0.438285   
F10      F      0.949580000000     0.866210000000     0.324050000000    -0.436551   
F11      F      0.203010000000     0.683520000000     0.128530000000    -0.442486   
F12      F      0.132020000000     0.575020000000     0.233340000000    -0.443612   
F13      F      0.931960000000     0.363890000000     0.804760000000    -0.435403   
F14      F      0.636870000000     0.172530000000     0.041300000000    -0.440634   
F15      F      0.831300000000     0.405050000000     0.789270000000    -0.435437   
F16      F      0.036580000000     0.616270000000     0.069690000000    -0.44412    
H1       H      0.948650000000     0.896760000000     0.448900000000     0.0368286  
H2       H      0.031240000000     0.109530000000     0.580140000000     0.0267997  
H3       H      0.982750000000     0.951870000000     0.527430000000     0.0443713  
H4       H      0.995130000000     0.057130000000     0.498300000000     0.0402441  
H5       H      0.998750000000     0.079420000000     0.549750000000     0.0662751  
H6       H      0.963210000000     0.025510000000     0.468370000000     0.0451379  
H7       H      0.061880000000     0.009100000000     0.550330000000     0.12103    
H8       H      0.979790000000     0.928340000000     0.479050000000     0.0605315  
H9       H      0.917840000000     0.999350000000     0.469520000000     0.057974   
H10      H      0.014940000000     0.983390000000     0.556950000000     0.043898   
H11      H      0.887620000000     0.967280000000     0.438650000000     0.0334083  
H12      H      0.794150000000     0.803260000000     0.404250000000     0.0338824  
H13      H      0.691800000000     0.695800000000     0.624500000000     0.0265952  
H14      H      0.769780000000     0.727320000000     0.468640000000     0.044563   
H15      H      0.724570000000     0.768110000000     0.561660000000     0.0388008  
H16      H      0.724750000000     0.726090000000     0.595070000000     0.0657689  
H17      H      0.755670000000     0.799660000000     0.530830000000     0.0430539  
H18      H      0.689090000000     0.689200000000     0.513020000000     0.119764   
H19      H      0.764470000000     0.771060000000     0.435510000000     0.0586179  
H20      H      0.806980000000     0.805270000000     0.515220000000     0.0571498  
H21      H      0.739020000000     0.695590000000     0.499650000000     0.0434234  
H22      H      0.836180000000     0.837380000000     0.483230000000     0.0314154  
H23      H      0.170640000000     0.142620000000     0.548610000000     0.0361843  
H24      H      0.312060000000     0.349400000000     0.474860000000     0.0320446  
H25      H      0.203100000000     0.217160000000     0.487390000000     0.0450072  
H26      H      0.286210000000     0.270420000000     0.533380000000     0.0415634  
H27      H      0.282220000000     0.317360000000     0.505840000000     0.0682223  
H28      H      0.255890000000     0.238990000000     0.565120000000     0.0442824  
H29      H      0.283070000000     0.251890000000     0.434830000000     0.120873   
H30      H      0.202650000000     0.171500000000     0.516350000000     0.0597138  
H31      H      0.207590000000     0.238340000000     0.586010000000     0.0577729  
H32      H      0.233620000000     0.248470000000     0.455600000000     0.0442564  
H33      H      0.176160000000     0.208630000000     0.617770000000     0.0334524  
H34      H      0.571940000000     0.534650000000     0.610530000000     0.0330843  
H35      H      0.409860000000     0.466200000000     0.414050000000     0.0269484  
H36      H      0.538090000000     0.483300000000     0.529410000000     0.045452   
H37      H      0.441530000000     0.519280000000     0.496310000000     0.0396626  
H38      H      0.440230000000     0.498200000000     0.444710000000     0.0667672  
H39      H      0.471740000000     0.550830000000     0.528150000000     0.0435618  
H40      H      0.462130000000     0.423780000000     0.501320000000     0.120572   
H41      H      0.540940000000     0.503280000000     0.579870000000     0.0586433  
H42      H      0.515770000000     0.579580000000     0.527240000000     0.0595936  
H43      H      0.507740000000     0.451710000000     0.497870000000     0.0441695  
H44      H      0.546460000000     0.610370000000     0.558900000000     0.0381802  
H45      H      0.701270000000     0.068900000000     0.154290000000     0.0332411  
H46      H      0.780110000000     0.930420000000     0.366940000000     0.0269779  
H47      H      0.761040000000     0.038480000000     0.229810000000     0.0445662  
H48      H      0.718720000000     0.955960000000     0.289250000000     0.0395294  
H49      H      0.748380000000     0.960290000000     0.335600000000     0.0663943  
H50      H      0.687160000000     0.986280000000     0.257590000000     0.0432202  
H51      H      0.811510000000     0.957060000000     0.263670000000     0.121759   
H52      H      0.732300000000     0.037060000000     0.184400000000     0.0585824  
H53      H      0.666970000000     0.035300000000     0.254430000000     0.0572205  
H54      H      0.792560000000     0.007950000000     0.261190000000     0.0447569  
H55      H      0.636230000000     0.066530000000     0.223300000000     0.0328292  
H56      H      0.388990000000     0.322380000000     0.297400000000     0.0375936  
H57      H      0.594650000000     0.182450000000     0.224280000000     0.0282043  
H58      H      0.440670000000     0.245100000000     0.259550000000     0.0471455  
H59      H      0.546340000000     0.265620000000     0.258430000000     0.0398959  
H60      H      0.564120000000     0.213790000000     0.255440000000     0.0670836  
H61      H      0.514650000000     0.295600000000     0.290280000000     0.0439818  
H62      H      0.503270000000     0.221040000000     0.181700000000     0.121723   
H63      H      0.420480000000     0.293530000000     0.264780000000     0.0602812  
H64      H      0.485530000000     0.293080000000     0.335130000000     0.0595956  
H65      H      0.472350000000     0.215550000000     0.227370000000     0.045508   
H66      H      0.453750000000     0.322720000000     0.366720000000     0.0390757  
H67      H      0.195350000000     0.113340000000     0.706870000000     0.0321824  
H68      H      0.289490000000     0.896040000000     0.819960000000     0.0298089  
H69      H      0.261860000000     0.046030000000     0.738020000000     0.0449842  
H70      H      0.219450000000     0.966590000000     0.801650000000     0.0409121  
H71      H      0.257730000000     0.927960000000     0.790840000000     0.0677579  
H72      H      0.187430000000     0.998220000000     0.772000000000     0.0442239  
H73      H      0.304440000000     0.004050000000     0.823660000000     0.121956   
H74      H      0.226490000000     0.084070000000     0.739550000000     0.0583711  
H75      H      0.173120000000     0.007530000000     0.721580000000     0.0595853  
H76      H      0.293700000000     0.014860000000     0.768470000000     0.0447291  
H77      H      0.141940000000     0.037760000000     0.690140000000     0.0404633  
H78      H      0.546460000000     0.642400000000     0.715100000000     0.0321958  
H79      H      0.425850000000     0.857640000000     0.802950000000     0.0291455  
H80      H      0.470550000000     0.700300000000     0.744690000000     0.0439363  
H81      H      0.503380000000     0.801140000000     0.772830000000     0.0399228  
H82      H      0.456010000000     0.827280000000     0.770380000000     0.0672136  
H83      H      0.534520000000     0.770140000000     0.741480000000     0.0431856  
H84      H      0.439910000000     0.752330000000     0.828350000000     0.120144   
H85      H      0.514990000000     0.673040000000     0.745980000000     0.0578635  
H86      H      0.538770000000     0.748920000000     0.692000000000     0.0573251  
H87      H      0.439690000000     0.731200000000     0.776480000000     0.0436422  
H88      H      0.570700000000     0.717700000000     0.662220000000     0.0327518  
H89      H      0.528800000000     0.073740000000     0.118470000000     0.0399444  
H90      H      0.456270000000     0.916320000000     0.917430000000     0.030471   
H91      H      0.473990000000     0.042770000000     0.038400000000     0.0494021  
H92      H      0.510190000000     0.947250000000     0.997990000000     0.0404597  
H93      H      0.488000000000     0.945930000000     0.948880000000     0.0685102  
H94      H      0.541980000000     0.977680000000     0.029300000000     0.0442039  
H95      H      0.415400000000     0.967410000000     0.006430000000     0.122627   
H96      H      0.497300000000     0.041790000000     0.088890000000     0.0617194  
H97      H      0.567660000000     0.025820000000     0.026580000000     0.0607689  
H98      H      0.442330000000     0.012660000000     0.006750000000     0.0479065  
H99      H      0.598630000000     0.057770000000     0.056840000000     0.0388181  
H100     H      0.091100000000     0.716810000000     0.186290000000     0.0387204  
H101     H      0.894390000000     0.785710000000     0.344150000000     0.0285503  
H102     H      0.045760000000     0.756870000000     0.268800000000     0.047338   
H103     H      0.939000000000     0.745730000000     0.260990000000     0.0416053  
H104     H      0.925440000000     0.753970000000     0.314070000000     0.0675704  
H105     H      0.970360000000     0.714210000000     0.230440000000     0.046147   
H106     H      0.979460000000     0.829040000000     0.292990000000     0.123364   
H107     H      0.060270000000     0.748450000000     0.216890000000     0.0617477  
H108     H      0.004450000000     0.673820000000     0.234920000000     0.061205   
H109     H      0.014350000000     0.788520000000     0.299190000000     0.0454141  
H110     H      0.035450000000     0.643040000000     0.203590000000     0.0408986  
H111     H      0.344360000000     0.822130000000     0.978360000000     0.0413747  
H112     H      0.140840000000     0.677630000000     0.049360000000     0.0332993  
H113     H      0.294140000000     0.743080000000     0.014490000000     0.0469539  
H114     H      0.188110000000     0.761450000000     0.016520000000     0.0417141  
H115     H      0.171410000000     0.708940000000     0.018180000000     0.0688109  
H116     H      0.219110000000     0.792960000000     0.985530000000     0.0452867  
H117     H      0.232170000000     0.716310000000     0.091980000000     0.121699   
H118     H      0.313570000000     0.791870000000     0.010400000000     0.0620642  
H119     H      0.247910000000     0.792490000000     0.940660000000     0.0592103  
H120     H      0.263120000000     0.712020000000     0.045920000000     0.0450312  
H121     H      0.278930000000     0.823530000000     0.909740000000     0.0356517  
H122     H      0.279260000000     0.428880000000     0.371000000000     0.0333595  
H123     H      0.198980000000     0.567110000000     0.158760000000     0.0332175  
H124     H      0.218360000000     0.460220000000     0.296560000000     0.0449859  
H125     H      0.260340000000     0.542550000000     0.236570000000     0.0422829  
H126     H      0.230230000000     0.536680000000     0.190050000000     0.0690169  
H127     H      0.292060000000     0.512430000000     0.268170000000     0.0441702  
H128     H      0.168220000000     0.542690000000     0.262820000000     0.121112   
H129     H      0.247490000000     0.460440000000     0.341350000000     0.058778   
H130     H      0.312530000000     0.464130000000     0.271080000000     0.0581106  
H131     H      0.186620000000     0.490810000000     0.265380000000     0.0442836  
H132     H      0.343980000000     0.433380000000     0.301790000000     0.0336456  
H133     H      0.063710000000     0.213530000000     0.661580000000     0.0331889  
H134     H      0.906340000000     0.284260000000     0.860970000000     0.0277497  
H135     H      0.983590000000     0.251460000000     0.707060000000     0.0447468  
H136     H      0.988820000000     0.242930000000     0.818950000000     0.0397413  
H137     H      0.935770000000     0.251340000000     0.830280000000     0.0672647  
H138     H      0.019420000000     0.211240000000     0.787670000000     0.043131   
H139     H      0.961680000000     0.325440000000     0.775140000000     0.122665   
H140     H      0.032420000000     0.244170000000     0.692460000000     0.0584866  
H141     H      0.019580000000     0.170580000000     0.753410000000     0.0570486  
H142     H      0.953680000000     0.283610000000     0.738460000000     0.0464783  
H143     H      0.051960000000     0.140910000000     0.722430000000     0.0313616  
H144     H      0.785260000000     0.313410000000     0.903870000000     0.034286   
H145     H      0.690900000000     0.196880000000     0.123220000000     0.0274404  
H146     H      0.715150000000     0.289640000000     0.973980000000     0.0450146  
H147     H      0.758050000000     0.227630000000     0.055150000000     0.039267   
H148     H      0.721170000000     0.229800000000     0.093680000000     0.0663056  
H149     H      0.789540000000     0.258640000000     0.024220000000     0.0434793  
H150     H      0.671770000000     0.207720000000     0.013860000000     0.121214   
H151     H      0.753050000000     0.283760000000     0.935080000000     0.0593767  
H152     H      0.800580000000     0.311090000000     0.014490000000     0.0570892  
H153     H      0.683530000000     0.258870000000     0.005120000000     0.044756   
H154     H      0.832550000000     0.340270000000     0.982530000000     0.0314035  
H155     H      0.687880000000     0.552290000000     0.650960000000     0.0343698  
H156     H      0.794580000000     0.450710000000     0.872110000000     0.0279756  
H157     H      0.761980000000     0.523280000000     0.713950000000     0.0450918  
H158     H      0.722030000000     0.481150000000     0.808960000000     0.0393166  
H159     H      0.764210000000     0.482580000000     0.841470000000     0.0664199  
H160     H      0.691730000000     0.513230000000     0.777840000000     0.043539   
H161     H      0.797140000000     0.440330000000     0.760920000000     0.12197    
H162     H      0.718830000000     0.520760000000     0.681630000000     0.0592546  
H163     H      0.687930000000     0.565040000000     0.761990000000     0.057374   
H164     H      0.792380000000     0.491340000000     0.745140000000     0.0454081  
H165     H      0.656980000000     0.595910000000     0.730650000000     0.0323134  
H166     H      0.898610000000     0.469470000000     0.925970000000     0.0344974  
H167     H      0.090960000000     0.535500000000     0.090930000000     0.0287303  
H168     H      0.941700000000     0.509470000000     0.009430000000     0.0445354  
H169     H      0.048260000000     0.494660000000     0.007030000000     0.039967   
H170     H      0.060950000000     0.504130000000     0.059310000000     0.0669947  
H171     H      0.017170000000     0.463380000000     0.975800000000     0.0446916  
H172     H      0.007950000000     0.579630000000     0.036900000000     0.120538   
H173     H      0.930270000000     0.500860000000     0.955920000000     0.0593358  
H174     H      0.980510000000     0.424110000000     0.980940000000     0.0581153  
H175     H      0.972670000000     0.540550000000     0.040810000000     0.0440288  
H176     H      0.948560000000     0.393420000000     0.950430000000     0.0330206  
In1      In     0.865960000000     0.377000000000     0.887750000000     2.41793    
In2      In     0.116220000000     0.625780000000     0.139020000000     2.42255    
In3      In     0.365950000000     0.875700000000     0.888320000000     2.41955    
In4      In     0.616360000000     0.126020000000     0.136830000000     2.42305    
In5      In     0.366290000000     0.374660000000     0.387740000000     2.41634    
In6      In     0.615750000000     0.626250000000     0.637080000000     2.41791    
In7      In     0.866050000000     0.876760000000     0.388230000000     2.41722    
In8      In     0.115950000000     0.126090000000     0.638840000000     2.408      
N1       N      0.064820000000     0.076750000000     0.582960000000    -0.244536   
N2       N      0.915990000000     0.929780000000     0.441580000000    -0.194119   
N3       N      0.671900000000     0.675010000000     0.586040000000    -0.245448   
N4       N      0.817230000000     0.822610000000     0.441510000000    -0.194663   
N5       N      0.314680000000     0.319420000000     0.437220000000    -0.244989   
N6       N      0.171120000000     0.173570000000     0.585430000000    -0.194311   
N7       N      0.418570000000     0.426870000000     0.439760000000    -0.245099   
N8       N      0.561460000000     0.574690000000     0.586840000000    -0.194038   
N9       N      0.813890000000     0.926730000000     0.333670000000    -0.245363   
N10      N      0.666620000000     0.070060000000     0.186690000000    -0.195124   
N11      N      0.566600000000     0.183430000000     0.185470000000    -0.243964   
N12      N      0.419140000000     0.324620000000     0.334330000000    -0.192409   
N13      N      0.315000000000     0.931380000000     0.838570000000    -0.244348   
N14      N      0.166500000000     0.077630000000     0.696160000000    -0.193901   
N15      N      0.415590000000     0.822720000000     0.834140000000    -0.246269   
N16      N      0.560880000000     0.677880000000     0.686560000000    -0.195397   
N17      N      0.417790000000     0.925170000000     0.943270000000    -0.243102   
N18      N      0.565870000000     0.068160000000     0.089660000000    -0.192252   
N19      N      0.918960000000     0.825290000000     0.336150000000    -0.243632   
N20      N      0.065420000000     0.677740000000     0.192700000000    -0.192444   
N21      N      0.168720000000     0.678890000000     0.088300000000    -0.243918   
N22      N      0.313840000000     0.824960000000     0.941810000000    -0.191957   
N23      N      0.165870000000     0.572450000000     0.192530000000    -0.24393    
N24      N      0.313830000000     0.428880000000     0.338510000000    -0.194293   
N25      N      0.916990000000     0.323500000000     0.835890000000    -0.24394    
N26      N      0.060130000000     0.175100000000     0.689860000000    -0.195321   
N27      N      0.663990000000     0.183630000000     0.085920000000    -0.244794   
N28      N      0.811220000000     0.328860000000     0.940960000000    -0.195743   
N29      N      0.813510000000     0.427660000000     0.834460000000    -0.243377   
N30      N      0.670160000000     0.576230000000     0.688620000000    -0.19453    
N31      N      0.066610000000     0.575150000000     0.082620000000    -0.245303   
N32      N      0.921270000000     0.429230000000     0.936170000000    -0.194796   
O1       O      0.884260000000     0.331820000000     0.874640000000    -0.506483   
O2       O      0.898610000000     0.369220000000     0.849740000000    -0.447166   
O3       O      0.850200000000     0.360190000000     0.933760000000    -0.505254   
O4       O      0.905870000000     0.384000000000     0.917800000000    -0.498605   
O5       O      0.848480000000     0.391590000000     0.841750000000    -0.445404   
O6       O      0.881490000000     0.421860000000     0.905310000000    -0.495386   
O7       O      0.827210000000     0.346180000000     0.894660000000    -0.499207   
O8       O      0.830960000000     0.412110000000     0.880930000000    -0.499931   
O9       O      0.077170000000     0.633310000000     0.169940000000    -0.483094   
O10      O      0.105170000000     0.669740000000     0.161920000000    -0.492693   
O11      O      0.125470000000     0.601570000000     0.183420000000    -0.459349   
O12      O      0.105100000000     0.582100000000     0.115450000000    -0.506841   
O13      O      0.156450000000     0.654500000000     0.132590000000    -0.452409   
O14      O      0.078550000000     0.619270000000     0.106130000000    -0.457389   
O15      O      0.155640000000     0.596420000000     0.147520000000    -0.494038   
O16      O      0.127960000000     0.649850000000     0.095170000000    -0.498747   
O17      O      0.351760000000     0.921880000000     0.872950000000    -0.454805   
O18      O      0.330070000000     0.884990000000     0.853920000000    -0.496537   
O19      O      0.373240000000     0.906220000000     0.928750000000    -0.446682   
O20      O      0.356700000000     0.849500000000     0.931580000000    -0.480325   
O21      O      0.394060000000     0.867330000000     0.846440000000    -0.505771   
O22      O      0.323470000000     0.851670000000     0.898360000000    -0.488556   
O23      O      0.409930000000     0.894320000000     0.902290000000    -0.503201   
O24      O      0.386990000000     0.831400000000     0.876290000000    -0.467631   
O25      O      0.577680000000     0.157060000000     0.142010000000    -0.453351   
O26      O      0.606500000000     0.153040000000     0.179270000000    -0.501384   
O27      O      0.608770000000     0.093220000000     0.098200000000    -0.48651    
O28      O      0.626780000000     0.149830000000     0.092470000000    -0.45332    
O29      O      0.624710000000     0.096820000000     0.178230000000    -0.498771   
O30      O      0.652490000000     0.160130000000     0.130850000000    -0.508046   
O31      O      0.574400000000     0.100230000000     0.129400000000    -0.488158   
O32      O      0.657480000000     0.098860000000     0.144550000000    -0.501848   
O33      O      0.341180000000     0.331420000000     0.394370000000    -0.463091   
O34      O      0.339670000000     0.363100000000     0.429690000000    -0.498761   
O35      O      0.376100000000     0.348830000000     0.344450000000    -0.483861   
O36      O      0.356720000000     0.403760000000     0.346750000000    -0.49264    
O37      O      0.397210000000     0.382150000000     0.427340000000    -0.452062   
O38      O      0.323960000000     0.400000000000     0.380410000000    -0.499764   
O39      O      0.408820000000     0.350360000000     0.378240000000    -0.489362   
O40      O      0.387560000000     0.418980000000     0.399370000000    -0.509073   
O41      O      0.595120000000     0.581850000000     0.624890000000    -0.498514   
O42      O      0.581780000000     0.619620000000     0.599960000000    -0.489641   
O43      O      0.581720000000     0.633030000000     0.674080000000    -0.500395   
O44      O      0.635620000000     0.612730000000     0.682360000000    -0.498499   
O45      O      0.635480000000     0.640250000000     0.591920000000    -0.459786   
O46      O      0.650620000000     0.590780000000     0.642770000000    -0.495325   
O47      O      0.594880000000     0.670670000000     0.648850000000    -0.500509   
O48      O      0.652230000000     0.660130000000     0.631770000000    -0.506807   
O49      O      0.852750000000     0.857990000000     0.434280000000    -0.502467   
O50      O      0.831020000000     0.841790000000     0.395200000000    -0.491723   
O51      O      0.905400000000     0.885330000000     0.418270000000    -0.49277    
O52      O      0.905140000000     0.870050000000     0.357200000000    -0.444639   
O53      O      0.824620000000     0.903010000000     0.378700000000    -0.50634    
O54      O      0.879320000000     0.832520000000     0.367330000000    -0.502012   
O55      O      0.875660000000     0.920690000000     0.411900000000    -0.49937    
O56      O      0.855780000000     0.900230000000     0.343590000000    -0.455614   
O57      O      0.074960000000     0.119070000000     0.610500000000    -0.506631   
O58      O      0.106770000000     0.085120000000     0.610410000000    -0.449673   
O59      O      0.145280000000     0.165700000000     0.629460000000    -0.492275   
O60      O      0.089830000000     0.167830000000     0.648440000000    -0.496606   
O61      O      0.126930000000     0.083860000000     0.664790000000    -0.483388   
O62      O      0.085910000000     0.132340000000     0.679690000000    -0.503514   
O63      O      0.142000000000     0.133020000000     0.595140000000    -0.494637   
O64      O      0.154720000000     0.120770000000     0.670870000000    -0.500266   


