data_structure

_audit_creation_method RASPA-1.0
_audit_creation_date 2023-6-5
_audit_author_name 'Poobodin Mano'

_cell_length_a    56.626
_cell_length_b    55.9914
_cell_length_c    30.4526
_cell_angle_alpha 89.7773
_cell_angle_beta  90.2227
_cell_angle_gamma 89.9998
_cell_volume      96550.6

_symmetry_cell_setting          triclinic
_symmetry_space_group_name_Hall 'P 1'
_symmetry_space_group_name_H-M  'P 1'
_symmetry_Int_Tables_number     1

_symmetry_equiv_pos_as_xyz 'x,y,z'

loop_
_atom_site_label
_atom_site_type_symbol
_atom_site_fract_x
_atom_site_fract_y
_atom_site_fract_z
_atom_site_charge
C1       C      0.317850000000     0.375050000000     0.977720000000     0.411752   
C2       C      0.299270000000     0.304780000000     0.906400000000     0.411948   
C3       C      0.369320000000     0.324770000000     0.967780000000     0.424839   
C4       C      0.300720000000     0.304960000000     0.042500000000     0.424232   
C5       C      0.323350000000     0.627170000000     0.989360000000     0.424236   
C6       C      0.312940000000     0.698010000000     0.070030000000     0.425512   
C7       C      0.375420000000     0.680270000000     0.003960000000     0.423432   
C8       C      0.304920000000     0.690010000000     0.923610000000     0.425369   
C9       C      0.618620000000     0.326310000000     0.985520000000     0.412911   
C10      C      0.690700000000     0.309550000000     0.930310000000     0.423611   
C11      C      0.666750000000     0.379980000000     0.998010000000     0.424213   
C12      C      0.686910000000     0.310940000000     0.064760000000     0.413644   
C13      C      0.675270000000     0.632570000000     0.004460000000     0.413944   
C14      C      0.694870000000     0.703610000000     0.937150000000     0.413691   
C15      C      0.624950000000     0.684850000000     0.000750000000     0.412075   
C16      C      0.693170000000     0.701130000000     0.074820000000     0.422152   
C17      C      0.823830000000     0.132910000000     0.494140000000     0.424449   
C18      C      0.802540000000     0.201250000000     0.566990000000     0.414298   
C19      C      0.870800000000     0.188490000000     0.490050000000     0.424644   
C20      C      0.798060000000     0.202970000000     0.432290000000     0.422714   
C21      C      0.877830000000     0.827540000000     0.503420000000     0.410775   
C22      C      0.809530000000     0.811650000000     0.574900000000     0.419802   
C23      C      0.827190000000     0.880060000000     0.502850000000     0.412945   
C24      C      0.807710000000     0.808970000000     0.437420000000     0.416039   
C25      C      0.126940000000     0.819890000000     0.506440000000     0.422818   
C26      C      0.197190000000     0.810630000000     0.423620000000     0.413219   
C27      C      0.179420000000     0.874460000000     0.484770000000     0.411709   
C28      C      0.190450000000     0.803270000000     0.566390000000     0.413729   
C29      C      0.119450000000     0.179980000000     0.465820000000     0.419635   
C30      C      0.187800000000     0.196050000000     0.542140000000     0.425594   
C31      C      0.173460000000     0.126080000000     0.480930000000     0.424372   
C32      C      0.186130000000     0.192980000000     0.400330000000     0.415024   
C33      C      0.171130000000     0.064090000000     0.522080000000    -0.119515   
C34      C      0.199350000000     0.910540000000     0.502510000000     0.0775674  
C35      C      0.164260000000     0.911610000000     0.459710000000     0.0777766  
C36      C      0.200510000000     0.935480000000     0.502230000000    -0.0933776  
C37      C      0.203050000000     0.988370000000     0.473210000000    -0.0343081  
C38      C      0.202590000000     0.013340000000     0.474420000000    -0.0309209  
C39      C      0.182660000000     0.975140000000     0.483150000000    -0.00484244 
C40      C      0.164680000000     0.936520000000     0.459330000000    -0.0941786  
C41      C      0.181860000000     0.025450000000     0.486400000000    -0.00975088 
C42      C      0.188560000000     0.064970000000     0.450280000000    -0.101148   
C43      C      0.161610000000     0.012170000000     0.496970000000    -0.030844   
C44      C      0.185720000000     0.089710000000     0.449410000000     0.0836486  
C45      C      0.168400000000     0.088980000000     0.520510000000     0.171962   
C46      C      0.161970000000     0.987270000000     0.495090000000    -0.0337738  
C47      C      0.182790000000     0.948720000000     0.481160000000     0.0526872  
C48      C      0.180970000000     0.051880000000     0.486640000000     0.0675152  
C49      C      0.065790000000     0.798790000000     0.491730000000    -0.119111   
C50      C      0.914680000000     0.832910000000     0.467680000000     0.0778068  
C51      C      0.913430000000     0.816190000000     0.539330000000     0.0783423  
C52      C      0.939300000000     0.831450000000     0.467560000000    -0.0929641  
C53      C      0.990930000000     0.840600000000     0.492050000000    -0.0344418  
C54      C      0.015560000000     0.839670000000     0.493690000000    -0.0305662  
C55      C      0.977390000000     0.820760000000     0.504860000000    -0.00400591 
C56      C      0.938020000000     0.814180000000     0.540080000000    -0.0916021  
C57      C      0.027170000000     0.818790000000     0.507640000000    -0.0097924  
C58      C      0.065970000000     0.836480000000     0.529200000000    -0.101812   
C59      C      0.013650000000     0.798830000000     0.519970000000    -0.0301063  
C60      C      0.090570000000     0.835940000000     0.529600000000     0.0839185  
C61      C      0.090610000000     0.798570000000     0.492630000000     0.172079   
C62      C      0.988980000000     0.799870000000     0.518900000000    -0.0337061  
C63      C      0.951240000000     0.822020000000     0.504050000000     0.052589   
C64      C      0.053320000000     0.817990000000     0.509500000000     0.0675881  
C65      C      0.823610000000     0.070550000000     0.455220000000    -0.118574   
C66      C      0.827150000000     0.917220000000     0.540380000000     0.0773446  
C67      C      0.823680000000     0.916350000000     0.462760000000     0.0779005  
C68      C      0.826220000000     0.942160000000     0.539980000000    -0.0930944  
C69      C      0.810200000000     0.993970000000     0.528900000000    -0.033987   
C70      C      0.809860000000     0.018930000000     0.527580000000    -0.0302726  
C71      C      0.823790000000     0.980990000000     0.498720000000    -0.00417552 
C72      C      0.822870000000     0.941260000000     0.461130000000    -0.0932661  
C73      C      0.823220000000     0.031510000000     0.496220000000    -0.00880671 
C74      C      0.823330000000     0.071260000000     0.534040000000    -0.100322   
C75      C      0.836860000000     0.018470000000     0.466150000000    -0.0302438  
C76      C      0.823790000000     0.096150000000     0.532500000000     0.0841732  
C77      C      0.824580000000     0.095600000000     0.454440000000     0.174487   
C78      C      0.837080000000     0.993520000000     0.467300000000    -0.0336214  
C79      C      0.824210000000     0.954480000000     0.500000000000     0.0525333  
C80      C      0.823180000000     0.058100000000     0.495150000000     0.0678858  
C81      C      0.930240000000     0.199350000000     0.445310000000    -0.118835   
C82      C      0.084840000000     0.202850000000     0.479080000000     0.0797462  
C83      C      0.081710000000     0.163990000000     0.448840000000     0.0800719  
C84      C      0.060250000000     0.204990000000     0.479830000000    -0.0927174  
C85      C      0.007160000000     0.167820000000     0.485350000000    -0.0336894  
C86      C      0.982610000000     0.169000000000     0.489020000000    -0.0301472  
C87      C      0.019990000000     0.187290000000     0.468610000000    -0.00395555 
C88      C      0.057110000000     0.165450000000     0.449480000000    -0.0929855  
C89      C      0.970340000000     0.189610000000     0.475700000000    -0.00916189 
C90      C      0.933220000000     0.183120000000     0.518280000000    -0.101124   
C91      C      0.983120000000     0.209040000000     0.458660000000    -0.0300242  
C92      C      0.908680000000     0.183570000000     0.521300000000     0.084555   
C93      C      0.905530000000     0.199810000000     0.449180000000     0.174123   
C94      C      0.007730000000     0.207950000000     0.455390000000    -0.0334495  
C95      C      0.046100000000     0.186010000000     0.465540000000     0.053584   
C96      C      0.944260000000     0.190720000000     0.479770000000     0.068217   
C97      C      0.797050000000     0.771270000000     0.667930000000    -0.11919    
C98      C      0.695440000000     0.733610000000     0.881690000000     0.077977   
C99      C      0.727770000000     0.707000000000     0.889440000000     0.0778385  
C100     C      0.706460000000     0.744950000000     0.846320000000    -0.0923637  
C101     C      0.727630000000     0.756160000000     0.757020000000    -0.0338892  
C102     C      0.738990000000     0.766700000000     0.721150000000    -0.0306943  
C103     C      0.740610000000     0.748750000000     0.794140000000    -0.00392537 
C104     C      0.739260000000     0.717870000000     0.854150000000    -0.0927107  
C105     C      0.763590000000     0.769980000000     0.721500000000    -0.00920686 
C106     C      0.766560000000     0.800950000000     0.662060000000    -0.100689   
C107     C      0.776540000000     0.762760000000     0.758700000000    -0.0305001  
C108     C      0.778500000000     0.811090000000     0.626590000000     0.0825837  
C109     C      0.808910000000     0.781910000000     0.632520000000     0.171752   
C110     C      0.765190000000     0.752310000000     0.794610000000    -0.0335113  
C111     C      0.728640000000     0.737100000000     0.832020000000     0.0523983  
C112     C      0.775780000000     0.780780000000     0.683140000000     0.0670267  
C113     C      0.705650000000     0.741670000000     0.167210000000    -0.119296   
C114     C      0.807030000000     0.778930000000     0.382510000000     0.0780155  
C115     C      0.774790000000     0.805660000000     0.389310000000     0.0780785  
C116     C      0.795980000000     0.767610000000     0.347130000000    -0.0924651  
C117     C      0.774920000000     0.756500000000     0.257620000000    -0.0339087  
C118     C      0.763580000000     0.746000000000     0.221680000000    -0.0306259  
C119     C      0.761900000000     0.763980000000     0.294350000000    -0.00392008 
C120     C      0.763290000000     0.794830000000     0.353980000000    -0.0928008  
C121     C      0.738960000000     0.742840000000     0.221550000000    -0.00923737 
C122     C      0.735960000000     0.711770000000     0.162740000000    -0.10079    
C123     C      0.725970000000     0.750150000000     0.258350000000    -0.0303495  
C124     C      0.724050000000     0.701620000000     0.127220000000     0.0829316  
C125     C      0.693830000000     0.731030000000     0.131740000000     0.17191    
C126     C      0.737300000000     0.760540000000     0.294340000000    -0.0333907  
C127     C      0.773860000000     0.775570000000     0.332310000000     0.052547   
C128     C      0.726810000000     0.732040000000     0.183140000000     0.0672618  
C129     C      0.735350000000     0.296310000000     0.845960000000    -0.118719   
C130     C      0.771050000000     0.202350000000     0.618280000000     0.078942   
C131     C      0.801960000000     0.230820000000     0.622660000000     0.078694   
C132     C      0.759900000000     0.212600000000     0.654460000000    -0.0921461  
C133     C      0.733850000000     0.246840000000     0.714640000000    -0.0337842  
C134     C      0.723000000000     0.257530000000     0.750730000000    -0.0301816  
C135     C      0.758460000000     0.243580000000     0.713820000000    -0.00363975 
C136     C      0.791330000000     0.241470000000     0.658950000000    -0.0923413  
C137     C      0.736510000000     0.265200000000     0.786860000000    -0.00894811 
C138     C      0.703690000000     0.267850000000     0.841660000000    -0.100494   
C139     C      0.761120000000     0.261840000000     0.786100000000    -0.0300858  
C140     C      0.693050000000     0.278860000000     0.877510000000     0.0833375  
C141     C      0.724530000000     0.306860000000     0.882470000000     0.172159   
C142     C      0.771960000000     0.251180000000     0.750000000000    -0.0334137  
C143     C      0.770030000000     0.232400000000     0.675300000000     0.0529293  
C144     C      0.724980000000     0.276670000000     0.825170000000     0.0674013  
C145     C      0.754250000000     0.214520000000     0.344820000000    -0.117889   
C146     C      0.717550000000     0.310290000000     0.118270000000     0.081303   
C147     C      0.688110000000     0.280170000000     0.118640000000     0.0800293  
C148     C      0.728550000000     0.299890000000     0.154750000000    -0.0912929  
C149     C      0.755240000000     0.266120000000     0.215550000000    -0.0327607  
C150     C      0.765960000000     0.255520000000     0.252150000000    -0.0294781  
C151     C      0.730510000000     0.267880000000     0.212640000000    -0.00312029 
C152     C      0.698630000000     0.269320000000     0.155170000000    -0.0920555  
C153     C      0.752210000000     0.246420000000     0.286740000000    -0.00786141 
C154     C      0.783870000000     0.245230000000     0.344460000000    -0.0984701  
C155     C      0.727480000000     0.248190000000     0.283840000000    -0.0296145  
C156     C      0.794500000000     0.234420000000     0.380800000000     0.0865264  
C157     C      0.765030000000     0.204140000000     0.381850000000     0.175581   
C158     C      0.716760000000     0.258780000000     0.247230000000    -0.0326016  
C159     C      0.719100000000     0.279160000000     0.173710000000     0.0540353  
C160     C      0.763640000000     0.235190000000     0.325700000000     0.0688116  
C161     C      0.664160000000     0.442000000000     0.038270000000    -0.118497   
C162     C      0.681690000000     0.596110000000     0.966740000000     0.078031   
C163     C      0.670730000000     0.595520000000     0.041800000000     0.0780858  
C164     C      0.681800000000     0.571180000000     0.965680000000    -0.0930247  
C165     C      0.665830000000     0.519510000000     0.966040000000    -0.0336291  
C166     C      0.664700000000     0.494580000000     0.965380000000    -0.0303904  
C167     C      0.675330000000     0.531520000000     0.002520000000    -0.00386607 
C168     C      0.670660000000     0.570570000000     0.041910000000    -0.0927542  
C169     C      0.673020000000     0.481050000000     0.001210000000    -0.00854645 
C170     C      0.676170000000     0.441670000000     0.962720000000    -0.0996163  
C171     C      0.682630000000     0.493040000000     0.037610000000    -0.0301325  
C172     C      0.674060000000     0.416860000000     0.962700000000     0.0847596  
C173     C      0.661720000000     0.417050000000     0.037290000000     0.172899   
C174     C      0.683790000000     0.517980000000     0.038250000000    -0.0330881  
C175     C      0.676080000000     0.558070000000     0.003460000000     0.0528544  
C176     C      0.671320000000     0.454550000000     0.000830000000     0.0678784  
C177     C      0.292620000000     0.714490000000     0.813400000000    -0.119233   
C178     C      0.207330000000     0.803850000000     0.637900000000     0.0782104  
C179     C      0.201550000000     0.766960000000     0.601370000000     0.0788712  
C180     C      0.217590000000     0.792080000000     0.673700000000    -0.0927268  
C181     C      0.227540000000     0.761040000000     0.753840000000    -0.0339774  
C182     C      0.239200000000     0.749510000000     0.788460000000    -0.0304017  
C183     C      0.231920000000     0.754470000000     0.710110000000    -0.00383085 
C184     C      0.211760000000     0.754620000000     0.636560000000    -0.0924118  
C185     C      0.255570000000     0.731220000000     0.780110000000    -0.00915588 
C186     C      0.256830000000     0.713030000000     0.855420000000    -0.100954   
C187     C      0.259760000000     0.724490000000     0.736410000000    -0.0300326  
C188     C      0.269340000000     0.702440000000     0.889870000000     0.0833361  
C189     C      0.304800000000     0.703500000000     0.848240000000     0.173077   
C190     C      0.248060000000     0.735970000000     0.701820000000    -0.0331409  
C191     C      0.220110000000     0.767180000000     0.673170000000     0.0529107  
C192     C      0.268500000000     0.719470000000     0.816820000000     0.0677276  
C193     C      0.288280000000     0.709580000000     0.179700000000    -0.119115   
C194     C      0.196860000000     0.793480000000     0.352360000000     0.0784521  
C195     C      0.233240000000     0.800180000000     0.389130000000     0.0781866  
C196     C      0.208690000000     0.783290000000     0.316870000000    -0.0917506  
C197     C      0.239560000000     0.773650000000     0.237250000000    -0.0340007  
C198     C      0.251380000000     0.762210000000     0.203040000000    -0.0303144  
C199     C      0.246210000000     0.769560000000     0.281170000000    -0.00370072 
C200     C      0.245630000000     0.790080000000     0.354270000000    -0.0929815  
C201     C      0.270060000000     0.746350000000     0.211980000000    -0.00906609 
C202     C      0.288120000000     0.745730000000     0.136940000000    -0.100894   
C203     C      0.276810000000     0.742400000000     0.255870000000    -0.0299839  
C204     C      0.299170000000     0.733490000000     0.102910000000     0.0832035  
C205     C      0.299720000000     0.697710000000     0.145300000000     0.173092   
C206     C      0.265030000000     0.753870000000     0.290050000000    -0.033091   
C207     C      0.233370000000     0.781270000000     0.317720000000     0.0527668  
C208     C      0.282250000000     0.733720000000     0.175690000000     0.0676324  
C209     C      0.437790000000     0.662810000000     0.016450000000    -0.12177    
C210     C      0.588730000000     0.693810000000     0.036130000000     0.0792148  
C211     C      0.588580000000     0.679630000000     0.962840000000     0.0785969  
C212     C      0.564080000000     0.694530000000     0.036320000000    -0.0914315  
C213     C      0.512210000000     0.705750000000     0.017690000000    -0.0335358  
C214     C      0.487530000000     0.704940000000     0.018770000000    -0.0295816  
C215     C      0.525160000000     0.686800000000     0.999520000000    -0.00348339 
C216     C      0.563920000000     0.679960000000     0.962000000000    -0.0928163  
C217     C      0.475330000000     0.685070000000     0.002100000000    -0.00881924 
C218     C      0.435380000000     0.703560000000     0.991460000000    -0.0998907  
C219     C      0.488290000000     0.666190000000     0.983790000000    -0.0293681  
C220     C      0.410780000000     0.701800000000     0.991570000000     0.0874731  
C221     C      0.413130000000     0.661470000000     0.016130000000     0.179802   
C222     C      0.512920000000     0.667070000000     0.982400000000    -0.0329773  
C223     C      0.551370000000     0.687310000000     0.999130000000     0.053174   
C224     C      0.449160000000     0.683910000000     0.003800000000     0.0704042  
C225     C      0.228650000000     0.232720000000     0.608000000000    -0.118942   
C226     C      0.295640000000     0.271880000000     0.857750000000     0.0800615  
C227     C      0.269240000000     0.304640000000     0.851800000000     0.0793495  
C228     C      0.284560000000     0.260570000000     0.822410000000    -0.0918069  
C229     C      0.248380000000     0.235870000000     0.763040000000    -0.0336361  
C230     C      0.237430000000     0.225290000000     0.726760000000    -0.0301089  
C231     C      0.253990000000     0.260330000000     0.762570000000    -0.00365802 
C232     C      0.257890000000     0.293930000000     0.816180000000    -0.0926628  
C233     C      0.232100000000     0.238900000000     0.689140000000    -0.00889593 
C234     C      0.201260000000     0.212560000000     0.655460000000    -0.0998883  
C235     C      0.237770000000     0.263330000000     0.688660000000    -0.0299516  
C236     C      0.190350000000     0.202720000000     0.618570000000     0.0845306  
C237     C      0.217310000000     0.222790000000     0.571340000000     0.172286   
C238     C      0.248520000000     0.273950000000     0.725020000000    -0.0329619  
C239     C      0.265560000000     0.271680000000     0.800990000000     0.0536336  
C240     C      0.220650000000     0.227720000000     0.650420000000     0.067923   
C241     C      0.288570000000     0.263130000000     0.133480000000    -0.119319   
C242     C      0.185410000000     0.221330000000     0.342020000000     0.0808391  
C243     C      0.218110000000     0.195210000000     0.350380000000     0.0829041  
C244     C      0.196130000000     0.232330000000     0.305970000000    -0.0919961  
C245     C      0.217940000000     0.243530000000     0.216870000000    -0.0339371  
C246     C      0.229480000000     0.254680000000     0.181820000000    -0.0303009  
C247     C      0.230560000000     0.236660000000     0.254720000000    -0.00334001 
C248     C      0.229320000000     0.205790000000     0.314520000000    -0.0921365  
C249     C      0.253890000000     0.259190000000     0.183870000000    -0.00905877 
C250     C      0.256200000000     0.290520000000     0.125000000000    -0.10083    
C251     C      0.266450000000     0.252450000000     0.221830000000    -0.0295986  
C252     C      0.268360000000     0.301710000000     0.090890000000     0.0832949  
C253     C      0.300640000000     0.274880000000     0.099550000000     0.172553   
C254     C      0.254930000000     0.241320000000     0.256820000000    -0.0328549  
C255     C      0.218450000000     0.224720000000     0.292030000000     0.0542934  
C256     C      0.266260000000     0.270970000000     0.146700000000     0.0677528  
C257     C      0.430510000000     0.325800000000     0.926230000000    -0.117811   
C258     C      0.581020000000     0.319510000000     0.017460000000     0.0800216  
C259     C      0.584080000000     0.326880000000     0.940950000000     0.0790423  
C260     C      0.556480000000     0.317830000000     0.013960000000    -0.0919267  
C261     C      0.506190000000     0.302910000000     0.992410000000    -0.0332951  
C262     C      0.481530000000     0.302810000000     0.990280000000    -0.0301629  
C263     C      0.519290000000     0.320100000000     0.969170000000    -0.00358111 
C264     C      0.559570000000     0.325410000000     0.936290000000    -0.0925947  
C265     C      0.469380000000     0.319940000000     0.964950000000    -0.00812879 
C266     C      0.430510000000     0.317290000000     0.003580000000    -0.0988094  
C267     C      0.482510000000     0.336860000000     0.941090000000    -0.0299027  
C268     C      0.405960000000     0.318970000000     0.003430000000     0.0850989  
C269     C      0.405780000000     0.327810000000     0.926960000000     0.172613   
C270     C      0.507170000000     0.336920000000     0.943130000000    -0.0327424  
C271     C      0.545440000000     0.320950000000     0.973090000000     0.0535099  
C272     C      0.443130000000     0.320720000000     0.964740000000     0.0677046  
C273     C      0.340570000000     0.564380000000     0.973850000000    -0.121758   
C274     C      0.310360000000     0.412430000000     0.943180000000     0.0799244  
C275     C      0.322100000000     0.411020000000     0.018000000000     0.0795123  
C276     C      0.309780000000     0.437360000000     0.944280000000    -0.0921602  
C277     C      0.298110000000     0.489460000000     0.965720000000    -0.033448   
C278     C      0.298980000000     0.514420000000     0.966550000000    -0.0297387  
C279     C      0.316530000000     0.475850000000     0.984150000000    -0.00358015 
C280     C      0.321930000000     0.435920000000     0.020130000000    -0.0927357  
C281     C      0.318440000000     0.526220000000     0.985300000000    -0.00889836 
C282     C      0.300340000000     0.566350000000     0.998780000000    -0.100025   
C283     C      0.336830000000     0.512590000000     0.003730000000    -0.029144   
C284     C      0.302150000000     0.591210000000     0.000270000000     0.0875624  
C285     C      0.341950000000     0.589290000000     0.975690000000     0.179944   
C286     C      0.335840000000     0.487680000000     0.003330000000    -0.032594   
C287     C      0.315870000000     0.449390000000     0.982930000000     0.0537795  
C288     C      0.319690000000     0.552670000000     0.985570000000     0.070421   
H1       H      0.149800000000     0.902800000000     0.442860000000     0.0311249  
H2       H      0.191770000000     0.099090000000     0.420330000000     0.0321903  
H3       H      0.146070000000     0.977470000000     0.503280000000     0.0424345  
H4       H      0.218440000000     0.023200000000     0.466220000000     0.0417328  
H5       H      0.196090000000     0.056090000000     0.422050000000     0.0597846  
H6       H      0.219200000000     0.979410000000     0.463790000000     0.0419257  
H7       H      0.164870000000     0.054230000000     0.550450000000     0.0810344  
H8       H      0.150840000000     0.946190000000     0.442220000000     0.0571248  
H9       H      0.214770000000     0.944330000000     0.519520000000     0.0579155  
H10      H      0.145350000000     0.021070000000     0.505890000000     0.0440577  
H11      H      0.213060000000     0.900840000000     0.520010000000     0.0323883  
H12      H      0.903800000000     0.810140000000     0.568010000000     0.040332   
H13      H      0.099570000000     0.851030000000     0.544350000000     0.0308115  
H14      H      0.978960000000     0.784270000000     0.528700000000     0.0443528  
H15      H      0.025570000000     0.855250000000     0.483700000000     0.0410818  
H16      H      0.056900000000     0.851420000000     0.544110000000     0.0593204  
H17      H      0.982450000000     0.856990000000     0.481420000000     0.0415465  
H18      H      0.056300000000     0.783920000000     0.477360000000     0.0817991  
H19      H      0.946640000000     0.806950000000     0.569040000000     0.0594815  
H20      H      0.948920000000     0.837510000000     0.438920000000     0.0574844  
H21      H      0.022160000000     0.782560000000     0.531090000000     0.04453    
H22      H      0.906040000000     0.840290000000     0.438820000000     0.0313443  
H23      H      0.822600000000     0.906760000000     0.431950000000     0.0321698  
H24      H      0.823710000000     0.105480000000     0.563660000000     0.0321871  
H25      H      0.848010000000     0.984040000000     0.444050000000     0.0424695  
H26      H      0.798890000000     0.028370000000     0.550830000000     0.0416852  
H27      H      0.823420000000     0.062420000000     0.565740000000     0.0591147  
H28      H      0.799550000000     0.984800000000     0.553150000000     0.0422146  
H29      H      0.823590000000     0.060900000000     0.424450000000     0.0817577  
H30      H      0.821020000000     0.950080000000     0.429590000000     0.0581123  
H31      H      0.827520000000     0.951730000000     0.570740000000     0.0569094  
H32      H      0.847740000000     0.027520000000     0.442130000000     0.0439909  
H33      H      0.828930000000     0.908310000000     0.571900000000     0.0319392  
H34      H      0.089570000000     0.147680000000     0.436560000000     0.0333617  
H35      H      0.900950000000     0.176980000000     0.551550000000     0.0316043  
H36      H      0.017160000000     0.223170000000     0.442140000000     0.0431457  
H37      H      0.973200000000     0.153690000000     0.501950000000     0.042189   
H38      H      0.943500000000     0.176750000000     0.546030000000     0.0600992  
H39      H      0.016140000000     0.151750000000     0.496220000000     0.0432661  
H40      H      0.938450000000     0.205870000000     0.415480000000     0.0821627  
H41      H      0.046790000000     0.150520000000     0.437550000000     0.058644   
H42      H      0.052390000000     0.221150000000     0.492690000000     0.0583497  
H43      H      0.974120000000     0.225220000000     0.448430000000     0.0444334  
H44      H      0.095230000000     0.217710000000     0.491190000000     0.033276   
H45      H      0.736540000000     0.692110000000     0.905510000000     0.0320335  
H46      H      0.770510000000     0.826600000000     0.611090000000     0.0311828  
H47      H      0.775690000000     0.747260000000     0.822960000000     0.0422461  
H48      H      0.728560000000     0.771860000000     0.692770000000     0.0411447  
H49      H      0.750300000000     0.809070000000     0.673190000000     0.0592266  
H50      H      0.708720000000     0.753380000000     0.755260000000     0.0418051  
H51      H      0.804740000000     0.755790000000     0.683980000000     0.0808237  
H52      H      0.756210000000     0.710950000000     0.843880000000     0.0574483  
H53      H      0.697730000000     0.759950000000     0.830630000000     0.0572904  
H54      H      0.795470000000     0.765430000000     0.760300000000     0.0440344  
H55      H      0.678290000000     0.740190000000     0.891770000000     0.0330378  
H56      H      0.766070000000     0.820590000000     0.405000000000     0.0317356  
H57      H      0.731980000000     0.686030000000     0.112260000000     0.0309964  
H58      H      0.726770000000     0.765660000000     0.322390000000     0.0424317  
H59      H      0.774040000000     0.740770000000     0.193600000000     0.0410678  
H60      H      0.752140000000     0.703570000000     0.174450000000     0.0593997  
H61      H      0.793840000000     0.759190000000     0.256210000000     0.0417195  
H62      H      0.698020000000     0.757230000000     0.182740000000     0.0810182  
H63      H      0.746370000000     0.801820000000     0.343310000000     0.0575105  
H64      H      0.804670000000     0.752580000000     0.331820000000     0.0573421  
H65      H      0.707020000000     0.747560000000     0.259570000000     0.0443214  
H66      H      0.824140000000     0.772270000000     0.392960000000     0.0327714  
H67      H      0.818390000000     0.238420000000     0.610900000000     0.0335638  
H68      H      0.676360000000     0.271540000000     0.888570000000     0.0318305  
H69      H      0.790910000000     0.248580000000     0.750710000000     0.043002   
H70      H      0.704050000000     0.260150000000     0.750000000000     0.0417892  
H71      H      0.695270000000     0.252400000000     0.827120000000     0.0595811  
H72      H      0.722980000000     0.241490000000     0.687030000000     0.0430316  
H73      H      0.752020000000     0.303350000000     0.834290000000     0.0812095  
H74      H      0.799630000000     0.256940000000     0.673700000000     0.0584157  
H75      H      0.743600000000     0.204840000000     0.666330000000     0.0582783  
H76      H      0.772000000000     0.267150000000     0.813710000000     0.0442464  
H77      H      0.762700000000     0.187000000000     0.603130000000     0.0352341  
H78      H      0.672330000000     0.271990000000     0.105180000000     0.0337931  
H79      H      0.810390000000     0.242710000000     0.393600000000     0.0400447  
H80      H      0.697690000000     0.260180000000     0.246340000000     0.0440316  
H81      H      0.785030000000     0.254130000000     0.253060000000     0.044859   
H82      H      0.791470000000     0.261480000000     0.331260000000     0.0625996  
H83      H      0.766330000000     0.272620000000     0.189180000000     0.0441773  
H84      H      0.738370000000     0.206530000000     0.331410000000     0.0824593  
H85      H      0.690900000000     0.253150000000     0.168400000000     0.0589926  
H86      H      0.744190000000     0.308260000000     0.168340000000     0.0599183  
H87      H      0.716390000000     0.241720000000     0.310230000000     0.044847   
H88      H      0.725350000000     0.326380000000     0.104640000000     0.0377808  
H89      H      0.666190000000     0.604550000000     0.072070000000     0.032544   
H90      H      0.678430000000     0.407690000000     0.932490000000     0.0362163  
H91      H      0.691540000000     0.526640000000     0.066590000000     0.0430274  
H92      H      0.656830000000     0.485930000000     0.937140000000     0.0418641  
H93      H      0.681930000000     0.450650000000     0.933070000000     0.0610779  
H94      H      0.658780000000     0.529380000000     0.938290000000     0.0420634  
H95      H      0.659410000000     0.451600000000     0.067770000000     0.0814303  
H96      H      0.665880000000     0.561190000000     0.071740000000     0.05814    
H97      H      0.686460000000     0.562270000000     0.935420000000     0.0573368  
H98      H      0.689490000000     0.483120000000     0.065480000000     0.0452655  
H99      H      0.686100000000     0.605600000000     0.936760000000     0.0321025  
H100     H      0.195440000000     0.756630000000     0.573510000000     0.0350192  
H101     H      0.259570000000     0.698230000000     0.919470000000     0.0308535  
H102     H      0.252010000000     0.730630000000     0.668490000000     0.0433854  
H103     H      0.235710000000     0.755230000000     0.821750000000     0.0409475  
H104     H      0.238060000000     0.716150000000     0.859090000000     0.059498   
H105     H      0.215030000000     0.775060000000     0.761350000000     0.0417526  
H106     H      0.302040000000     0.718910000000     0.783540000000     0.0818509  
H107     H      0.213040000000     0.735340000000     0.635090000000     0.0588007  
H108     H      0.224010000000     0.802510000000     0.701130000000     0.0574925  
H109     H      0.272050000000     0.710270000000     0.728910000000     0.0448553  
H110     H      0.205980000000     0.823150000000     0.639280000000     0.0326358  
H111     H      0.243370000000     0.806630000000     0.416960000000     0.0313145  
H112     H      0.302890000000     0.743490000000     0.073160000000     0.0307216  
H113     H      0.270440000000     0.750120000000     0.323530000000     0.0434632  
H114     H      0.245630000000     0.765490000000     0.169590000000     0.0410233  
H115     H      0.284200000000     0.764540000000     0.132820000000     0.0592086  
H116     H      0.225290000000     0.785810000000     0.229270000000     0.041692   
H117     H      0.284320000000     0.699920000000     0.209680000000     0.0821654  
H118     H      0.264720000000     0.789250000000     0.355980000000     0.0573751  
H119     H      0.198490000000     0.776520000000     0.289460000000     0.0588679  
H120     H      0.291310000000     0.730510000000     0.263860000000     0.0447564  
H121     H      0.177750000000     0.794420000000     0.350780000000     0.0362686  
H122     H      0.597670000000     0.673690000000     0.933570000000     0.031739   
H123     H      0.400740000000     0.717460000000     0.981760000000     0.0341317  
H124     H      0.522410000000     0.652100000000     0.968570000000     0.0435526  
H125     H      0.478000000000     0.719710000000     0.033250000000     0.0424917  
H126     H      0.443540000000     0.720110000000     0.980950000000     0.0620343  
H127     H      0.521150000000     0.721270000000     0.030830000000     0.0437698  
H128     H      0.447970000000     0.647190000000     0.025780000000     0.081053   
H129     H      0.554750000000     0.674530000000     0.932400000000     0.0582752  
H130     H      0.555050000000     0.700150000000     0.065820000000     0.0599909  
H131     H      0.479370000000     0.650750000000     0.970220000000     0.0463758  
H132     H      0.597940000000     0.699220000000     0.065760000000     0.0400202  
H133     H      0.262790000000     0.321880000000     0.862560000000     0.0335802  
H134     H      0.175500000000     0.190870000000     0.624170000000     0.0362799  
H135     H      0.252810000000     0.292790000000     0.723550000000     0.0442996  
H136     H      0.233370000000     0.206390000000     0.727940000000     0.0428749  
H137     H      0.194340000000     0.208510000000     0.687750000000     0.0612448  
H138     H      0.252230000000     0.224980000000     0.791650000000     0.0428843  
H139     H      0.243460000000     0.244690000000     0.603190000000     0.0820733  
H140     H      0.243080000000     0.302980000000     0.800830000000     0.0581131  
H141     H      0.291140000000     0.243450000000     0.811430000000     0.0598817  
H142     H      0.233660000000     0.274320000000     0.660290000000     0.0449538  
H143     H      0.310440000000     0.262850000000     0.873250000000     0.0360912  
H144     H      0.227170000000     0.180700000000     0.367040000000     0.0361373  
H145     H      0.259700000000     0.316680000000     0.074840000000     0.0309305  
H146     H      0.265090000000     0.236690000000     0.285830000000     0.0454461  
H147     H      0.219360000000     0.259440000000     0.152830000000     0.040968   
H148     H      0.239120000000     0.297390000000     0.134630000000     0.0596717  
H149     H      0.199210000000     0.239940000000     0.214010000000     0.0417606  
H150     H      0.296910000000     0.248150000000     0.150000000000     0.081356   
H151     H      0.246380000000     0.199060000000     0.304410000000     0.0594229  
H152     H      0.187190000000     0.247040000000     0.289770000000     0.0581514  
H153     H      0.285170000000     0.256090000000     0.224820000000     0.0453987  
H154     H      0.168270000000     0.227890000000     0.352180000000     0.0329612  
H155     H      0.594420000000     0.330440000000     0.911750000000     0.0324816  
H156     H      0.397070000000     0.316030000000     0.034470000000     0.0392532  
H157     H      0.516730000000     0.350600000000     0.925310000000     0.043617   
H158     H      0.471970000000     0.289290000000     0.008500000000     0.0433305  
H159     H      0.439550000000     0.313730000000     0.034330000000     0.0618743  
H160     H      0.515010000000     0.289470000000     0.012200000000     0.0430739  
H161     H      0.439810000000     0.328730000000     0.895640000000     0.0812681  
H162     H      0.551770000000     0.327650000000     0.904010000000     0.0583739  
H163     H      0.546220000000     0.314640000000     0.043350000000     0.0591397  
H164     H      0.473730000000     0.350540000000     0.921810000000     0.0448636  
H165     H      0.588870000000     0.317250000000     0.049740000000     0.0359822  
H166     H      0.327010000000     0.401210000000     0.047430000000     0.033758   
H167     H      0.286720000000     0.601160000000     0.010590000000     0.0341367  
H168     H      0.350390000000     0.477660000000     0.017440000000     0.04467    
H169     H      0.284620000000     0.524500000000     0.951930000000     0.0424913  
H170     H      0.283980000000     0.557880000000     0.008610000000     0.0621549  
H171     H      0.282940000000     0.480800000000     0.950980000000     0.0428722  
H172     H      0.355950000000     0.554230000000     0.963940000000     0.0814055  
H173     H      0.326490000000     0.444560000000     0.050780000000     0.0592305  
H174     H      0.305150000000     0.447160000000     0.914730000000     0.059517   
H175     H      0.351940000000     0.521220000000     0.018790000000     0.0467385  
H176     H      0.305870000000     0.403740000000     0.912500000000     0.0355924  
In1      In     0.321590000000     0.326980000000     0.973410000000     2.42934    
In2      In     0.328010000000     0.675110000000     0.996940000000     2.42987    
In3      In     0.665880000000     0.331620000000     0.994370000000     2.42886    
In4      In     0.672530000000     0.680830000000     0.003730000000     2.41782    
In5      In     0.823610000000     0.181330000000     0.496390000000     2.4329     
In6      In     0.830210000000     0.831830000000     0.503800000000     2.414      
In7      In     0.173830000000     0.826820000000     0.494950000000     2.42456    
In8      In     0.166710000000     0.173830000000     0.473170000000     2.41963    
N1       N      0.175770000000     0.101720000000     0.484020000000    -0.204127   
N2       N      0.181180000000     0.898780000000     0.481930000000    -0.194927   
N3       N      0.156070000000     0.100160000000     0.556030000000    -0.0306738  
N4       N      0.102870000000     0.817700000000     0.510120000000    -0.203801   
N5       N      0.901910000000     0.825510000000     0.503440000000    -0.19366    
N6       N      0.102500000000     0.777520000000     0.477390000000    -0.0307312  
N7       N      0.824220000000     0.108360000000     0.493260000000    -0.203609   
N8       N      0.825960000000     0.904470000000     0.502050000000    -0.194933   
N9       N      0.827100000000     0.107110000000     0.412540000000    -0.0303849  
N10      N      0.894840000000     0.191070000000     0.486730000000    -0.203849   
N11      N      0.095410000000     0.182380000000     0.464210000000    -0.195112   
N12      N      0.892140000000     0.210790000000     0.414380000000    -0.0308246  
N13      N      0.799280000000     0.801560000000     0.611360000000    -0.203421   
N14      N      0.706010000000     0.714770000000     0.902950000000    -0.195093   
N15      N      0.831760000000     0.772690000000     0.621340000000    -0.0310061  
N16      N      0.703390000000     0.711250000000     0.111270000000    -0.204027   
N17      N      0.796510000000     0.797820000000     0.403270000000    -0.1957     
N18      N      0.671080000000     0.740380000000     0.119780000000    -0.0311205  
N19      N      0.703000000000     0.298470000000     0.897320000000    -0.204147   
N20      N      0.791880000000     0.211430000000     0.602560000000    -0.194674   
N21      N      0.737160000000     0.325470000000     0.904830000000    -0.0304928  
N22      N      0.785600000000     0.213780000000     0.398890000000    -0.201905   
N23      N      0.697500000000     0.300500000000     0.100440000000    -0.193459   
N24      N      0.753320000000     0.184300000000     0.402380000000    -0.0301718  
N25      N      0.667240000000     0.404500000000     0.999630000000    -0.203402   
N26      N      0.676010000000     0.608140000000     0.004410000000    -0.195071   
N27      N      0.651970000000     0.405520000000     0.075300000000    -0.0304909  
N28      N      0.293210000000     0.698270000000     0.887010000000    -0.204833   
N29      N      0.199620000000     0.791380000000     0.601900000000    -0.194688   
N30      N      0.328970000000     0.696770000000     0.841190000000    -0.0308323  
N31      N      0.304350000000     0.709570000000     0.106330000000    -0.204826   
N32      N      0.209060000000     0.801600000000     0.388330000000    -0.194771   
N33      N      0.307470000000     0.673620000000     0.152970000000    -0.0308854  
N34      N      0.399680000000     0.681110000000     0.004210000000    -0.201975   
N35      N      0.600830000000     0.686220000000     0.999810000000    -0.193727   
N36      N      0.402420000000     0.638750000000     0.024530000000    -0.0376794  
N37      N      0.198430000000     0.207380000000     0.576900000000    -0.204253   
N38      N      0.288060000000     0.293760000000     0.872150000000    -0.193677   
N39      N      0.224920000000     0.230440000000     0.528610000000    -0.0306241  
N40      N      0.290210000000     0.293890000000     0.077720000000    -0.204487   
N41      N      0.196440000000     0.203080000000     0.364200000000    -0.192841   
N42      N      0.324380000000     0.267420000000     0.090510000000    -0.0309926  
N43      N      0.393550000000     0.324020000000     0.965630000000    -0.203262   
N44      N      0.594650000000     0.324140000000     0.981270000000    -0.194061   
N45      N      0.394110000000     0.335180000000     0.887260000000    -0.0307189  
N46      N      0.322580000000     0.602660000000     0.988250000000    -0.202332   
N47      N      0.316640000000     0.399430000000     0.979680000000    -0.193785   
N48      N      0.364350000000     0.600270000000     0.967560000000    -0.0376924  
O1       O      0.292440000000     0.323650000000     0.024860000000    -0.504973   
O2       O      0.319150000000     0.297200000000     0.024360000000    -0.480747   
O3       O      0.292650000000     0.324680000000     0.921380000000    -0.495976   
O4       O      0.314220000000     0.363540000000     0.942750000000    -0.489043   
O5       O      0.358270000000     0.323060000000     0.003580000000    -0.493303   
O6       O      0.323130000000     0.362250000000     0.010550000000    -0.4988     
O7       O      0.317190000000     0.296030000000     0.925340000000    -0.494477   
O8       O      0.356110000000     0.326960000000     0.934560000000    -0.480258   
O9       O      0.294360000000     0.683320000000     0.957950000000    -0.510702   
O10      O      0.327120000000     0.689480000000     0.926770000000    -0.478043   
O11      O      0.314420000000     0.675600000000     0.067370000000    -0.47847    
O12      O      0.308460000000     0.639690000000     0.009900000000    -0.478293   
O13      O      0.362720000000     0.695360000000     0.983780000000    -0.478362   
O14      O      0.339350000000     0.639140000000     0.970870000000    -0.474098   
O15      O      0.318880000000     0.708880000000     0.035400000000    -0.511005   
O16      O      0.363900000000     0.663870000000     0.022560000000    -0.473684   
O17      O      0.668450000000     0.302650000000     0.047110000000    -0.495167   
O18      O      0.694760000000     0.329700000000     0.046840000000    -0.491681   
O19      O      0.671880000000     0.301070000000     0.946160000000    -0.504989   
O20      O      0.632010000000     0.330630000000     0.953370000000    -0.500345   
O21      O      0.663670000000     0.366920000000     0.031350000000    -0.480397   
O22      O      0.629140000000     0.324500000000     0.022030000000    -0.491664   
O23      O      0.696630000000     0.329400000000     0.946380000000    -0.478913   
O24      O      0.669940000000     0.368480000000     0.962910000000    -0.494728   
O25      O      0.700060000000     0.681520000000     0.058930000000    -0.499999   
O26      O      0.676390000000     0.710690000000     0.053830000000    -0.478554   
O27      O      0.703900000000     0.686300000000     0.957890000000    -0.50164    
O28      O      0.679430000000     0.644990000000     0.970660000000    -0.498596   
O29      O      0.636960000000     0.689690000000     0.034570000000    -0.485746   
O30      O      0.669950000000     0.644540000000     0.038070000000    -0.499313   
O31      O      0.674580000000     0.709580000000     0.950240000000    -0.499011   
O32      O      0.636990000000     0.678160000000     0.968190000000    -0.499481   
O33      O      0.793370000000     0.182350000000     0.446730000000    -0.471206   
O34      O      0.815940000000     0.212480000000     0.450000000000    -0.491128   
O35      O      0.794110000000     0.183340000000     0.547340000000    -0.49715    
O36      O      0.824520000000     0.144650000000     0.529470000000    -0.50195    
O37      O      0.856940000000     0.190260000000     0.457660000000    -0.473719   
O38      O      0.822440000000     0.145750000000     0.460110000000    -0.473022   
O39      O      0.821600000000     0.209030000000     0.551050000000    -0.501006   
O40      O      0.860740000000     0.182830000000     0.525550000000    -0.502302   
O41      O      0.827980000000     0.802990000000     0.450830000000    -0.500951   
O42      O      0.798740000000     0.826320000000     0.457740000000    -0.503478   
O43      O      0.826440000000     0.802130000000     0.554570000000    -0.476147   
O44      O      0.865380000000     0.822250000000     0.536340000000    -0.48446    
O45      O      0.825770000000     0.867550000000     0.468540000000    -0.499944   
O46      O      0.866240000000     0.834980000000     0.470610000000    -0.499023   
O47      O      0.802540000000     0.831160000000     0.558340000000    -0.49632    
O48      O      0.830040000000     0.868200000000     0.537860000000    -0.497145   
O49      O      0.183500000000     0.792690000000     0.532170000000    -0.501648   
O50      O      0.188770000000     0.825730000000     0.564730000000    -0.495865   
O51      O      0.174940000000     0.811950000000     0.425100000000    -0.49011    
O52      O      0.139190000000     0.807290000000     0.480840000000    -0.471854   
O53      O      0.193200000000     0.861920000000     0.508050000000    -0.492728   
O54      O      0.138490000000     0.835950000000     0.526120000000    -0.5064     
O55      O      0.207570000000     0.817750000000     0.457890000000    -0.508539   
O56      O      0.163210000000     0.862830000000     0.465910000000    -0.505461   
O57      O      0.166330000000     0.199680000000     0.414920000000    -0.497531   
O58      O      0.195910000000     0.176530000000     0.422370000000    -0.484857   
O59      O      0.168840000000     0.184360000000     0.545800000000    -0.489435   
O60      O      0.132890000000     0.195700000000     0.481960000000    -0.493963   
O61      O      0.176220000000     0.137310000000     0.445280000000    -0.494689   
O62      O      0.129940000000     0.161490000000     0.452610000000    -0.505586   
O63      O      0.196300000000     0.195870000000     0.504010000000    -0.485895   
O64      O      0.168180000000     0.139200000000     0.513000000000    -0.481431   
O65      O      0.162370000000     0.095630000000     0.596340000000    -0.0994003  
O66      O      0.135720000000     0.110220000000     0.548650000000    -0.0925966  
O67      O      0.095230000000     0.766900000000     0.441890000000    -0.0978008  
O68      O      0.117350000000     0.766490000000     0.503130000000    -0.0895058  
O69      O      0.812730000000     0.101710000000     0.380640000000    -0.0895606  
O70      O      0.846510000000     0.118540000000     0.403580000000    -0.0852769  
O71      O      0.897320000000     0.206260000000     0.373660000000    -0.0949122  
O72      O      0.878240000000     0.228650000000     0.423050000000    -0.0852855  
O73      O      0.834700000000     0.749780000000     0.616820000000    -0.099516   
O74      O      0.850260000000     0.786330000000     0.625110000000    -0.085217   
O75      O      0.668300000000     0.763290000000     0.114710000000    -0.0993693  
O76      O      0.652470000000     0.726870000000     0.123380000000    -0.0849436  
O77      O      0.746620000000     0.342790000000     0.882390000000    -0.0976762  
O78      O      0.743410000000     0.322420000000     0.945640000000    -0.0899602  
O79      O      0.745410000000     0.166820000000     0.378450000000    -0.0905323  
O80      O      0.746260000000     0.186100000000     0.442850000000    -0.0886256  
O81      O      0.631900000000     0.394330000000     0.072080000000    -0.0909074  
O82      O      0.660220000000     0.410560000000     0.114110000000    -0.0975756  
O83      O      0.343450000000     0.711750000000     0.822700000000    -0.0955188  
O84      O      0.335110000000     0.674450000000     0.844770000000    -0.0835568  
O85      O      0.293360000000     0.658360000000     0.171680000000    -0.0948854  
O86      O      0.329790000000     0.668400000000     0.149660000000    -0.0836374  
O87      O      0.399150000000     0.631830000000     0.064910000000    -0.0803354  
O88      O      0.392100000000     0.627630000000     0.992150000000    -0.0463874  
O89      O      0.247340000000     0.230870000000     0.519420000000    -0.0982128  
O90      O      0.210200000000     0.241590000000     0.502810000000    -0.0926023  
O91      O      0.329040000000     0.244840000000     0.085540000000    -0.0983392  
O92      O      0.341740000000     0.282260000000     0.096810000000    -0.0853702  
O93      O      0.398680000000     0.324250000000     0.850640000000    -0.0967147  
O94      O      0.383380000000     0.355720000000     0.885870000000    -0.0907758  
O95      O      0.371250000000     0.603580000000     0.927260000000    -0.0809169  
O96      O      0.375350000000     0.610680000000     0.999980000000    -0.0460277  


