data_structure

_audit_creation_method RASPA-1.0
_audit_creation_date 2023-6-5
_audit_author_name 'Poobodin Mano'

_cell_length_a    55.8044
_cell_length_b    56.1291
_cell_length_c    30.9092
_cell_angle_alpha 89.7784
_cell_angle_beta  90.2216
_cell_angle_gamma 89.9997
_cell_volume      96813.9

_symmetry_cell_setting          triclinic
_symmetry_space_group_name_Hall 'P 1'
_symmetry_space_group_name_H-M  'P 1'
_symmetry_Int_Tables_number     1

_symmetry_equiv_pos_as_xyz 'x,y,z'

loop_
_atom_site_label
_atom_site_type_symbol
_atom_site_fract_x
_atom_site_fract_y
_atom_site_fract_z
_atom_site_charge
Br1      Br     0.185120000000     0.106700000000     0.370880000000    -0.219012   
Br2      Br     0.902840000000     0.770110000000     0.506170000000    -0.218363   
Br3      Br     0.797860000000     0.896720000000     0.581200000000    -0.207342   
Br4      Br     0.895730000000     0.235280000000     0.480330000000    -0.219542   
Br5      Br     0.835510000000     0.830050000000     0.658600000000    -0.20345    
Br6      Br     0.674050000000     0.748960000000     0.097210000000    -0.219516   
Br7      Br     0.681200000000     0.253790000000     0.903270000000    -0.219214   
Br8      Br     0.757040000000     0.170890000000     0.386850000000    -0.220104   
Br9      Br     0.691440000000     0.403420000000     0.889640000000    -0.219284   
Br10     Br     0.246130000000     0.841340000000     0.606350000000    -0.212351   
Br11     Br     0.259880000000     0.830950000000     0.398890000000    -0.214241   
Br12     Br     0.405240000000     0.626530000000     0.026780000000    -0.224441   
Br13     Br     0.195220000000     0.257450000000     0.539650000000    -0.210427   
Br14     Br     0.170660000000     0.246550000000     0.365890000000    -0.205653   
Br15     Br     0.403030000000     0.320720000000     0.870070000000    -0.221726   
Br16     Br     0.269960000000     0.392960000000     0.953470000000    -0.216618   
C1       C      0.323750000000     0.374410000000     0.977380000000     0.423906   
C2       C      0.313780000000     0.305930000000     0.898120000000     0.4187     
C3       C      0.379840000000     0.323610000000     0.966520000000     0.428464   
C4       C      0.310080000000     0.305710000000     0.039150000000     0.4123     
C5       C      0.319950000000     0.625740000000     0.989230000000     0.41719    
C6       C      0.311860000000     0.694820000000     0.061070000000     0.413152   
C7       C      0.378760000000     0.675610000000     0.996550000000     0.429029   
C8       C      0.310630000000     0.693660000000     0.919910000000     0.414721   
C9       C      0.633240000000     0.328770000000     0.981950000000     0.413696   
C10      C      0.703270000000     0.306440000000     0.922540000000     0.4257     
C11      C      0.686430000000     0.379320000000     0.985270000000     0.425142   
C12      C      0.702600000000     0.309570000000     0.055220000000     0.412165   
C13      C      0.684260000000     0.631430000000     0.994140000000     0.411483   
C14      C      0.703270000000     0.701380000000     0.928020000000     0.412164   
C15      C      0.632330000000     0.682850000000     0.995410000000     0.41315    
C16      C      0.702330000000     0.702280000000     0.061330000000     0.42413    
C17      C      0.819330000000     0.127390000000     0.487440000000     0.420903   
C18      C      0.809110000000     0.195760000000     0.559650000000     0.420615   
C19      C      0.876350000000     0.180710000000     0.489110000000     0.426277   
C20      C      0.808330000000     0.193580000000     0.415940000000     0.425876   
C21      C      0.882550000000     0.824240000000     0.495390000000     0.430398   
C22      C      0.815350000000     0.809220000000     0.567220000000     0.434793   
C23      C      0.823360000000     0.876390000000     0.494120000000     0.42704    
C24      C      0.814270000000     0.809760000000     0.423170000000     0.415459   
C25      C      0.135800000000     0.824230000000     0.492350000000     0.412251   
C26      C      0.207710000000     0.808440000000     0.422780000000     0.423525   
C27      C      0.185940000000     0.877600000000     0.483080000000     0.414013   
C28      C      0.206890000000     0.808310000000     0.556310000000     0.426245   
C29      C      0.129290000000     0.182090000000     0.476490000000     0.417387   
C30      C      0.201750000000     0.199950000000     0.535420000000     0.425137   
C31      C      0.181320000000     0.129590000000     0.467390000000     0.4232     
C32      C      0.198560000000     0.199620000000     0.402630000000     0.428562   
C33      C      0.185760000000     0.067530000000     0.428550000000    -0.13029    
C34      C      0.187160000000     0.915360000000     0.517360000000     0.0804452  
C35      C      0.186730000000     0.913040000000     0.440780000000     0.0801166  
C36      C      0.187560000000     0.940210000000     0.515320000000    -0.091523   
C37      C      0.201430000000     0.991850000000     0.501270000000    -0.0340814  
C38      C      0.200950000000     0.016720000000     0.499560000000    -0.0292512  
C39      C      0.187530000000     0.978280000000     0.472400000000    -0.0030184  
C40      C      0.187150000000     0.937880000000     0.437540000000    -0.0915547  
C41      C      0.186620000000     0.028630000000     0.468870000000    -0.0110617  
C42      C      0.184320000000     0.068090000000     0.506150000000    -0.103554   
C43      C      0.172940000000     0.015090000000     0.439660000000    -0.0294773  
C44      C      0.183000000000     0.092880000000     0.504700000000     0.0837456  
C45      C      0.184510000000     0.092480000000     0.427850000000     0.192096   
C46      C      0.173370000000     0.990200000000     0.441430000000    -0.0340298  
C47      C      0.187500000000     0.951810000000     0.475080000000     0.0531768  
C48      C      0.185630000000     0.055090000000     0.467830000000     0.0719377  
C49      C      0.943890000000     0.799520000000     0.501690000000    -0.130262   
C50      C      0.099670000000     0.824320000000     0.532750000000     0.0771785  
C51      C      0.098440000000     0.818320000000     0.456860000000     0.0771377  
C52      C      0.074700000000     0.823150000000     0.534790000000    -0.0930568  
C53      C      0.022130000000     0.836160000000     0.522580000000    -0.0344872  
C54      C      0.997100000000     0.836410000000     0.522650000000    -0.02969    
C55      C      0.034680000000     0.819170000000     0.498260000000    -0.0040181  
C56      C      0.073460000000     0.816890000000     0.457770000000    -0.093205   
C57      C      0.984050000000     0.819580000000     0.498620000000    -0.0112094  
C58      C      0.945470000000     0.842000000000     0.492710000000    -0.103582   
C59      C      0.996590000000     0.802340000000     0.474820000000    -0.0296656  
C60      C      0.920510000000     0.842540000000     0.491740000000     0.0855825  
C61      C      0.918770000000     0.800510000000     0.500950000000     0.194118   
C62      C      0.021650000000     0.802200000000     0.474490000000    -0.0341935  
C63      C      0.061280000000     0.819540000000     0.496990000000     0.0522125  
C64      C      0.957460000000     0.820350000000     0.497750000000     0.0726454  
C65      C      0.806080000000     0.937000000000     0.528220000000    -0.129802   
C66      C      0.822210000000     0.090130000000     0.451770000000     0.0819211  
C67      C      0.806840000000     0.091940000000     0.523100000000     0.0802572  
C68      C      0.820120000000     0.065340000000     0.451870000000    -0.092728   
C69      C      0.803400000000     0.013910000000     0.453660000000    -0.0342074  
C70      C      0.803840000000     0.989010000000     0.454460000000    -0.0294854  
C71      C      0.810510000000     0.027050000000     0.490160000000    -0.00345164 
C72      C      0.804510000000     0.067170000000     0.524310000000    -0.0925097  
C73      C      0.811360000000     0.976680000000     0.491790000000    -0.0108676  
C74      C      0.822420000000     0.938140000000     0.456500000000    -0.103693   
C75      C      0.818010000000     0.989820000000     0.528560000000    -0.0293136  
C76      C      0.825130000000     0.913460000000     0.458070000000     0.0859593  
C77      C      0.808920000000     0.912190000000     0.529050000000     0.192638   
C78      C      0.817600000000     0.014700000000     0.527750000000    -0.0336357  
C79      C      0.811450000000     0.053510000000     0.488610000000     0.0536724  
C80      C      0.813090000000     0.950260000000     0.492030000000     0.0724424  
C81      C      0.937260000000     0.206620000000     0.486630000000    -0.130522   
C82      C      0.094010000000     0.185690000000     0.518760000000     0.0803307  
C83      C      0.091200000000     0.184180000000     0.442230000000     0.0813411  
C84      C      0.069090000000     0.187100000000     0.522060000000    -0.0921969  
C85      C      0.016290000000     0.173550000000     0.517960000000    -0.0344081  
C86      C      0.991270000000     0.173260000000     0.519310000000    -0.0296141  
C87      C      0.028350000000     0.187680000000     0.487370000000    -0.00317623 
C88      C      0.066260000000     0.185700000000     0.444330000000    -0.0915724  
C89      C      0.977760000000     0.187190000000     0.490260000000    -0.011206   
C90      C      0.939540000000     0.164060000000     0.493700000000    -0.104124   
C91      C      0.989810000000     0.201710000000     0.460250000000    -0.0289136  
C92      C      0.914610000000     0.163040000000     0.493030000000     0.0844126  
C93      C      0.912160000000     0.205180000000     0.486290000000     0.192855   
C94      C      0.014840000000     0.201880000000     0.458720000000    -0.0335486  
C95      C      0.054900000000     0.187020000000     0.484570000000     0.0537263  
C96      C      0.951180000000     0.185990000000     0.490420000000     0.0722858  
C97      C      0.801160000000     0.795240000000     0.681200000000    -0.129632   
C98      C      0.734910000000     0.702280000000     0.876910000000     0.0782301  
C99      C      0.705590000000     0.732870000000     0.876580000000     0.0782958  
C100     C      0.746460000000     0.712780000000     0.841690000000    -0.0931244  
C101     C      0.757200000000     0.731140000000     0.750970000000    -0.0341701  
C102     C      0.768290000000     0.741720000000     0.715280000000    -0.0294913  
C103     C      0.749340000000     0.745110000000     0.785790000000    -0.00372545 
C104     C      0.716800000000     0.743960000000     0.841540000000    -0.0925206  
C105     C      0.771910000000     0.766490000000     0.713780000000    -0.0106785  
C106     C      0.777220000000     0.771110000000     0.633820000000    -0.103153   
C107     C      0.764160000000     0.780460000000     0.748690000000    -0.0290915  
C108     C      0.788160000000     0.782030000000     0.598460000000     0.087582   
C109     C      0.812060000000     0.805860000000     0.645180000000     0.196994   
C110     C      0.752910000000     0.769890000000     0.784240000000    -0.0334778  
C111     C      0.737420000000     0.733850000000     0.823530000000     0.0528504  
C112     C      0.783610000000     0.777730000000     0.675790000000     0.0738299  
C113     C      0.714980000000     0.744170000000     0.150420000000    -0.131127   
C114     C      0.815490000000     0.781670000000     0.365870000000     0.0780689  
C115     C      0.782080000000     0.807430000000     0.372950000000     0.0790836  
C116     C      0.805010000000     0.770870000000     0.329800000000    -0.0920098  
C117     C      0.784350000000     0.759940000000     0.240960000000    -0.0343837  
C118     C      0.773240000000     0.749310000000     0.205290000000    -0.0297088  
C119     C      0.770800000000     0.767020000000     0.277010000000    -0.00348192 
C120     C      0.771140000000     0.797140000000     0.336900000000    -0.092723   
C121     C      0.748330000000     0.745650000000     0.204740000000    -0.0113207  
C122     C      0.746110000000     0.714740000000     0.146550000000    -0.10373    
C123     C      0.734810000000     0.752600000000     0.240790000000    -0.0295217  
C124     C      0.734280000000     0.704430000000     0.111450000000     0.0837781  
C125     C      0.703500000000     0.733640000000     0.114960000000     0.192662   
C126     C      0.745910000000     0.763090000000     0.276530000000    -0.0338899  
C127     C      0.782500000000     0.778500000000     0.314940000000     0.0525259  
C128     C      0.736390000000     0.734730000000     0.166660000000     0.0721678  
C129     C      0.717310000000     0.260760000000     0.840760000000    -0.1304     
C130     C      0.810550000000     0.204410000000     0.634820000000     0.0800498  
C131     C      0.778360000000     0.218840000000     0.591800000000     0.0798467  
C132     C      0.800720000000     0.214930000000     0.671610000000    -0.0924127  
C133     C      0.782580000000     0.250440000000     0.738100000000    -0.0339573  
C134     C      0.772210000000     0.261100000000     0.774300000000    -0.0292414  
C135     C      0.768240000000     0.238780000000     0.707230000000    -0.00318063 
C136     C      0.768040000000     0.229580000000     0.627860000000    -0.092184   
C137     C      0.747270000000     0.260300000000     0.780490000000    -0.0105057  
C138     C      0.743970000000     0.294060000000     0.833080000000    -0.102117   
C139     C      0.732960000000     0.248560000000     0.749700000000    -0.028897   
C140     C      0.732820000000     0.304900000000     0.868180000000     0.0857633  
C141     C      0.706370000000     0.271960000000     0.875950000000     0.19376    
C142     C      0.743320000000     0.237930000000     0.713530000000    -0.0334901  
C143     C      0.779170000000     0.227660000000     0.668450000000     0.0534358  
C144     C      0.736120000000     0.271820000000     0.818690000000     0.0726979  
C145     C      0.765870000000     0.208400000000     0.327930000000    -0.130498   
C146     C      0.735420000000     0.305440000000     0.103930000000     0.0782665  
C147     C      0.701530000000     0.280240000000     0.110690000000     0.0792354  
C148     C      0.746420000000     0.294250000000     0.139260000000    -0.0925956  
C149     C      0.770510000000     0.257990000000     0.198740000000    -0.0340131  
C150     C      0.780960000000     0.246260000000     0.234070000000    -0.0294219  
C151     C      0.745940000000     0.263550000000     0.198680000000    -0.00343907 
C152     C      0.711970000000     0.268680000000     0.146100000000    -0.0923163  
C153     C      0.767070000000     0.239820000000     0.270130000000    -0.0106931  
C154     C      0.800560000000     0.233570000000     0.323360000000    -0.102085   
C155     C      0.742550000000     0.245570000000     0.270180000000    -0.0292673  
C156     C      0.810250000000     0.221770000000     0.359170000000     0.0842219  
C157     C      0.775960000000     0.196760000000     0.363780000000     0.193847   
C158     C      0.732120000000     0.257280000000     0.234910000000    -0.0337147  
C159     C      0.734670000000     0.275650000000     0.160880000000     0.0528966  
C160     C      0.778010000000     0.227100000000     0.307550000000     0.0722446  
C161     C      0.689970000000     0.441860000000     0.948220000000    -0.130765   
C162     C      0.686430000000     0.594440000000     0.031690000000     0.0769929  
C163     C      0.686120000000     0.595190000000     0.954980000000     0.0775147  
C164     C      0.687350000000     0.569550000000     0.031620000000    -0.0926409  
C165     C      0.702090000000     0.517680000000     0.021000000000    -0.0345013  
C166     C      0.702470000000     0.492770000000     0.019900000000    -0.0299134  
C167     C      0.687970000000     0.530680000000     0.991410000000    -0.0039487  
C168     C      0.687080000000     0.570360000000     0.953720000000    -0.0930405  
C169     C      0.688780000000     0.480310000000     0.989130000000    -0.0113367  
C170     C      0.688270000000     0.440380000000     0.025780000000    -0.103498   
C171     C      0.674620000000     0.493310000000     0.959670000000    -0.0298254  
C172     C      0.687760000000     0.415560000000     0.023710000000     0.0835058  
C173     C      0.689530000000     0.416920000000     0.946910000000     0.19217    
C174     C      0.674190000000     0.518170000000     0.960830000000    -0.0341804  
C175     C      0.687550000000     0.557180000000     0.992310000000     0.0519906  
C176     C      0.689110000000     0.453850000000     0.987750000000     0.0716444  
C177     C      0.245790000000     0.797490000000     0.651380000000    -0.130361   
C178     C      0.311430000000     0.702070000000     0.844500000000     0.0779135  
C179     C      0.280180000000     0.717540000000     0.887940000000     0.0769276  
C180     C      0.301640000000     0.713010000000     0.807790000000    -0.0931747  
C181     C      0.268170000000     0.726850000000     0.733250000000    -0.0345486  
C182     C      0.258070000000     0.738250000000     0.697240000000    -0.0297252  
C183     C      0.270300000000     0.738840000000     0.772920000000    -0.00407813 
C184     C      0.270030000000     0.728880000000     0.852010000000    -0.0933804  
C185     C      0.250120000000     0.761950000000     0.700050000000    -0.0112729  
C186     C      0.222400000000     0.762600000000     0.636140000000    -0.103591   
C187     C      0.252400000000     0.773980000000     0.739650000000    -0.0296616  
C188     C      0.212000000000     0.774540000000     0.601150000000     0.0845376  
C189     C      0.235260000000     0.809090000000     0.615870000000     0.193134   
C190     C      0.262290000000     0.762520000000     0.775730000000    -0.0340848  
C191     C      0.280770000000     0.726710000000     0.811340000000     0.0524117  
C192     C      0.239370000000     0.774120000000     0.661920000000     0.0722996  
C193     C      0.252070000000     0.794250000000     0.338140000000    -0.129918   
C194     C      0.280360000000     0.699200000000     0.111810000000     0.0790561  
C195     C      0.314740000000     0.723880000000     0.116610000000     0.0777249  
C196     C      0.270270000000     0.710410000000     0.147620000000    -0.0932502  
C197     C      0.247390000000     0.746480000000     0.207150000000    -0.0345465  
C198     C      0.237250000000     0.757650000000     0.242990000000    -0.0299378  
C199     C      0.272000000000     0.741100000000     0.206360000000    -0.00380001 
C200     C      0.305180000000     0.735500000000     0.152530000000    -0.0925851  
C201     C      0.251470000000     0.763760000000     0.278910000000    -0.0110409  
C202     C      0.218380000000     0.767810000000     0.332890000000    -0.103613   
C203     C      0.276110000000     0.758580000000     0.278020000000    -0.0295536  
C204     C      0.208150000000     0.779090000000     0.368390000000     0.0841949  
C205     C      0.241410000000     0.805380000000     0.373760000000     0.192191   
C206     C      0.286260000000     0.747370000000     0.242160000000    -0.0339342  
C207     C      0.282640000000     0.728860000000     0.168420000000     0.0525276  
C208     C      0.240530000000     0.775410000000     0.317170000000     0.0718242  
C209     C      0.442430000000     0.659540000000     0.011500000000    -0.130626   
C210     C      0.594950000000     0.683130000000     0.958290000000     0.0783255  
C211     C      0.596030000000     0.686140000000     0.034760000000     0.0796103  
C212     C      0.569920000000     0.683620000000     0.958620000000    -0.0922084  
C213     C      0.517320000000     0.696510000000     0.966920000000    -0.0341885  
C214     C      0.492280000000     0.695450000000     0.967420000000    -0.0297088  
C215     C      0.530930000000     0.684960000000     0.999150000000    -0.00337792 
C216     C      0.571050000000     0.686840000000     0.036260000000    -0.0917629  
C217     C      0.480240000000     0.682870000000     0.000230000000    -0.0108041  
C218     C      0.439230000000     0.700180000000     0.987760000000    -0.103291   
C219     C      0.493860000000     0.671660000000     0.032830000000    -0.0295268  
C220     C      0.414330000000     0.697790000000     0.987110000000     0.0844493  
C221     C      0.417420000000     0.657560000000     0.010810000000     0.192371   
C222     C      0.518860000000     0.672620000000     0.032210000000    -0.0338127  
C223     C      0.557600000000     0.685340000000     0.997960000000     0.0525158  
C224     C      0.453630000000     0.680910000000     0.999970000000     0.0717275  
C225     C      0.224370000000     0.245380000000     0.611410000000    -0.130089   
C226     C      0.303850000000     0.271100000000     0.858450000000     0.0807471  
C227     C      0.295220000000     0.309250000000     0.829120000000     0.0820013  
C228     C      0.293940000000     0.260130000000     0.822040000000    -0.0916666  
C229     C      0.259500000000     0.241510000000     0.754340000000    -0.0338147  
C230     C      0.248470000000     0.231140000000     0.718370000000    -0.0293307  
C231     C      0.272840000000     0.262670000000     0.750020000000    -0.00265466 
C232     C      0.284960000000     0.298880000000     0.792490000000    -0.0907845  
C233     C      0.250300000000     0.241810000000     0.677350000000    -0.0108845  
C234     C      0.239550000000     0.206810000000     0.631300000000    -0.103536   
C235     C      0.263680000000     0.262850000000     0.672860000000    -0.0289572  
C236     C      0.227610000000     0.197090000000     0.595810000000     0.0846111  
C237     C      0.212290000000     0.235190000000     0.576230000000     0.192489   
C238     C      0.274940000000     0.273090000000     0.708720000000    -0.0331276  
C239     C      0.284150000000     0.274010000000     0.788530000000     0.0538264  
C240     C      0.237960000000     0.231190000000     0.639480000000     0.0725606  
C241     C      0.210570000000     0.240410000000     0.311230000000    -0.129587   
C242     C      0.309270000000     0.275160000000     0.092540000000     0.0779822  
C243     C      0.278680000000     0.304480000000     0.090720000000     0.0775337  
C244     C      0.298620000000     0.264220000000     0.128290000000    -0.0925736  
C245     C      0.279670000000     0.254000000000     0.218750000000    -0.0340892  
C246     C      0.268660000000     0.243670000000     0.254800000000    -0.0289908  
C247     C      0.265850000000     0.262230000000     0.183620000000    -0.00317033 
C248     C      0.267510000000     0.293960000000     0.126340000000    -0.0919266  
C249     C      0.243600000000     0.241310000000     0.256490000000    -0.010242   
C250     C      0.241620000000     0.210920000000     0.316160000000    -0.101993   
C251     C      0.229820000000     0.249350000000     0.221150000000    -0.0286854  
C252     C      0.230160000000     0.201160000000     0.352130000000     0.0877787  
C253     C      0.199360000000     0.230320000000     0.347370000000     0.19565    
C254     C      0.240820000000     0.259710000000     0.185180000000    -0.0334769  
C255     C      0.277470000000     0.273590000000     0.145610000000     0.0526152  
C256     C      0.231800000000     0.230720000000     0.295090000000     0.0736042  
C257     C      0.442400000000     0.321670000000     0.927830000000    -0.130303   
C258     C      0.595360000000     0.327510000000     0.016650000000     0.0792209  
C259     C      0.597550000000     0.326250000000     0.940080000000     0.0805563  
C260     C      0.570380000000     0.326230000000     0.014810000000    -0.0924655  
C261     C      0.519130000000     0.309570000000     0.001250000000    -0.0339909  
C262     C      0.494120000000     0.308790000000     0.999370000000    -0.0296856  
C263     C      0.532120000000     0.323820000000     0.972130000000    -0.00336223 
C264     C      0.572610000000     0.325020000000     0.937050000000    -0.0915857  
C265     C      0.481510000000     0.322280000000     0.968350000000    -0.0109355  
C266     C      0.441690000000     0.322300000000     0.005470000000    -0.103785   
C267     C      0.494520000000     0.336380000000     0.938980000000    -0.0291843  
C268     C      0.416730000000     0.322540000000     0.003930000000     0.0857233  
C269     C      0.417280000000     0.321900000000     0.927050000000     0.192815   
C270     C      0.519530000000     0.337130000000     0.940830000000    -0.0338073  
C271     C      0.558690000000     0.324990000000     0.974680000000     0.0532019  
C272     C      0.454870000000     0.322010000000     0.967170000000     0.0722262  
C273     C      0.296640000000     0.434470000000     0.972400000000    -0.130204   
C274     C      0.313260000000     0.589380000000     0.026720000000     0.0823887  
C275     C      0.316670000000     0.589470000000     0.950290000000     0.080355   
C276     C      0.311290000000     0.564590000000     0.027120000000    -0.0919519  
C277     C      0.324720000000     0.512580000000     0.020820000000    -0.0336756  
C278     C      0.325580000000     0.487720000000     0.020070000000    -0.0291035  
C279     C      0.312380000000     0.525320000000     0.988420000000    -0.00307934 
C280     C      0.314880000000     0.564640000000     0.949510000000    -0.0918988  
C281     C      0.314220000000     0.474930000000     0.986780000000    -0.0107892  
C282     C      0.337680000000     0.437140000000     0.995420000000    -0.103135   
C283     C      0.301550000000     0.487630000000     0.954720000000    -0.0290847  
C284     C      0.339420000000     0.412430000000     0.993030000000     0.0845811  
C285     C      0.298820000000     0.409610000000     0.970090000000     0.19351    
C286     C      0.300620000000     0.512520000000     0.955560000000    -0.0337434  
C287     C      0.312520000000     0.551830000000     0.988290000000     0.0538192  
C288     C      0.316150000000     0.448520000000     0.984940000000     0.0723715  
H1       H      0.186460000000     0.902880000000     0.411010000000     0.0348032  
H2       H      0.181850000000     0.102050000000     0.535450000000     0.032092   
H3       H      0.162180000000     0.980320000000     0.419120000000     0.0422553  
H4       H      0.211980000000     0.026650000000     0.522080000000     0.0418087  
H5       H      0.183890000000     0.059170000000     0.537280000000     0.0598026  
H6       H      0.212860000000     0.983250000000     0.525040000000     0.0441651  
H7       H      0.187090000000     0.057890000000     0.398350000000     0.0841051  
H8       H      0.187410000000     0.946070000000     0.405760000000     0.0588867  
H9       H      0.187480000000     0.950240000000     0.545180000000     0.0583992  
H10      H      0.161460000000     0.023720000000     0.416020000000     0.0434972  
H11      H      0.187080000000     0.907080000000     0.549120000000     0.0373026  
H12      H      0.107220000000     0.816490000000     0.425800000000     0.0320005  
H13      H      0.912150000000     0.859860000000     0.487700000000     0.0326487  
H14      H      0.030830000000     0.788770000000     0.455710000000     0.0425352  
H15      H      0.987930000000     0.849770000000     0.541620000000     0.0419838  
H16      H      0.955310000000     0.858510000000     0.488960000000     0.0604013  
H17      H      0.031660000000     0.849590000000     0.540920000000     0.0419112  
H18      H      0.952790000000     0.782500000000     0.505830000000     0.0844068  
H19      H      0.063750000000     0.814290000000     0.427750000000     0.0569565  
H20      H      0.065970000000     0.825000000000     0.565850000000     0.0576069  
H21      H      0.987020000000     0.789250000000     0.455750000000     0.0435365  
H22      H      0.109430000000     0.827240000000     0.562670000000     0.0319101  
H23      H      0.801530000000     0.101870000000     0.551510000000     0.0325254  
H24      H      0.832840000000     0.905030000000     0.429840000000     0.0319171  
H25      H      0.823550000000     0.024260000000     0.556200000000     0.0429204  
H26      H      0.798250000000     0.979400000000     0.425820000000     0.0413862  
H27      H      0.828250000000     0.947700000000     0.427920000000     0.0600447  
H28      H      0.797490000000     0.022860000000     0.424420000000     0.0432622  
H29      H      0.798300000000     0.945900000000     0.555860000000     0.0846475  
H30      H      0.797370000000     0.058780000000     0.553130000000     0.0585705  
H31      H      0.825940000000     0.055510000000     0.423720000000     0.0579704  
H32      H      0.824240000000     0.980890000000     0.557620000000     0.044766   
H33      H      0.829370000000     0.098580000000     0.422970000000     0.0342807  
H34      H      0.099310000000     0.182940000000     0.410500000000     0.0384635  
H35      H      0.906560000000     0.145500000000     0.495530000000     0.0312192  
H36      H      0.023640000000     0.213130000000     0.435060000000     0.0452146  
H37      H      0.982490000000     0.162080000000     0.543070000000     0.0408918  
H38      H      0.949650000000     0.147630000000     0.496090000000     0.059944   
H39      H      0.026180000000     0.162260000000     0.540220000000     0.0418916  
H40      H      0.945870000000     0.223880000000     0.484300000000     0.0845275  
H41      H      0.055940000000     0.185320000000     0.414590000000     0.0598074  
H42      H      0.061020000000     0.188360000000     0.553780000000     0.058688   
H43      H      0.979880000000     0.212500000000     0.437250000000     0.0446864  
H44      H      0.104400000000     0.185750000000     0.548480000000     0.0335406  
H45      H      0.689560000000     0.741100000000     0.889430000000     0.034279   
H46      H      0.782440000000     0.776280000000     0.566580000000     0.0323224  
H47      H      0.747210000000     0.781090000000     0.810740000000     0.0439942  
H48      H      0.774230000000     0.730480000000     0.689010000000     0.0419777  
H49      H      0.763530000000     0.757780000000     0.628210000000     0.0612151  
H50      H      0.754520000000     0.712030000000     0.751070000000     0.0423687  
H51      H      0.806570000000     0.800550000000     0.713470000000     0.0856743  
H52      H      0.709110000000     0.760120000000     0.828190000000     0.0586897  
H53      H      0.762530000000     0.704560000000     0.829040000000     0.0578109  
H54      H      0.766520000000     0.799610000000     0.748270000000     0.0461218  
H55      H      0.742480000000     0.685980000000     0.890090000000     0.0320477  
H56      H      0.772660000000     0.821750000000     0.389080000000     0.0329371  
H57      H      0.742500000000     0.688800000000     0.097250000000     0.0313029  
H58      H      0.734970000000     0.767850000000     0.304040000000     0.0427965  
H59      H      0.784090000000     0.744370000000     0.177760000000     0.040984   
H60      H      0.762580000000     0.706780000000     0.158340000000     0.0599993  
H61      H      0.803500000000     0.762990000000     0.239940000000     0.0419286  
H62      H      0.707250000000     0.759870000000     0.165110000000     0.0841835  
H63      H      0.753950000000     0.803930000000     0.326160000000     0.0579318  
H64      H      0.814330000000     0.756350000000     0.314210000000     0.0577794  
H65      H      0.715630000000     0.749650000000     0.241620000000     0.0440262  
H66      H      0.832840000000     0.775160000000     0.376570000000     0.03534    
H67      H      0.769200000000     0.220750000000     0.560970000000     0.0348691  
H68      H      0.739420000000     0.322300000000     0.877630000000     0.0367058  
H69      H      0.731790000000     0.228860000000     0.690650000000     0.0438421  
H70      H      0.783760000000     0.269810000000     0.797620000000     0.0414651  
H71      H      0.758360000000     0.303370000000     0.816750000000     0.0621046  
H72      H      0.801810000000     0.251610000000     0.734020000000     0.0429342  
H73      H      0.711230000000     0.243250000000     0.830950000000     0.0844193  
H74      H      0.751560000000     0.239540000000     0.623790000000     0.0590504  
H75      H      0.809790000000     0.212780000000     0.702420000000     0.0580437  
H76      H      0.713680000000     0.247850000000     0.753220000000     0.0450386  
H77      H      0.827170000000     0.194590000000     0.638580000000     0.0324462  
H78      H      0.683960000000     0.274270000000     0.100200000000     0.0352885  
H79      H      0.827670000000     0.227720000000     0.370460000000     0.0374245  
H80      H      0.713240000000     0.261680000000     0.236250000000     0.0429826  
H81      H      0.799840000000     0.241840000000     0.232790000000     0.0416769  
H82      H      0.810530000000     0.248040000000     0.308740000000     0.0616559  
H83      H      0.781600000000     0.262290000000     0.171110000000     0.0425254  
H84      H      0.748610000000     0.202610000000     0.315680000000     0.0842379  
H85      H      0.702390000000     0.254170000000     0.161430000000     0.0588835  
H86      H      0.763870000000     0.300380000000     0.149900000000     0.0573541  
H87      H      0.731440000000     0.241250000000     0.297780000000     0.0442716  
H88      H      0.745020000000     0.319820000000     0.088130000000     0.0320811  
H89      H      0.685700000000     0.604720000000     0.924390000000     0.0319641  
H90      H      0.686750000000     0.405980000000     0.054200000000     0.0310502  
H91      H      0.662760000000     0.527580000000     0.938100000000     0.0420705  
H92      H      0.713770000000     0.483280000000     0.042720000000     0.0408636  
H93      H      0.687450000000     0.448940000000     0.057090000000     0.0594698  
H94      H      0.713170000000     0.526760000000     0.044590000000     0.0416711  
H95      H      0.691180000000     0.451880000000     0.918270000000     0.0837706  
H96      H      0.687620000000     0.561590000000     0.922590000000     0.0572823  
H97      H      0.687440000000     0.560090000000     0.062230000000     0.0564546  
H98      H      0.663540000000     0.484230000000     0.936070000000     0.0434442  
H99      H      0.686100000000     0.603370000000     0.062730000000     0.0316925  
H100     H      0.271310000000     0.719610000000     0.918860000000     0.0306435  
H101     H      0.198770000000     0.764830000000     0.582420000000     0.0309969  
H102     H      0.263890000000     0.772290000000     0.805760000000     0.0425943  
H103     H      0.256700000000     0.728590000000     0.667050000000     0.0412215  
H104     H      0.216800000000     0.744540000000     0.643410000000     0.059984   
H105     H      0.274020000000     0.708530000000     0.730200000000     0.0419776  
H106     H      0.259140000000     0.806710000000     0.670600000000     0.0845579  
H107     H      0.253720000000     0.739090000000     0.856030000000     0.0569117  
H108     H      0.310600000000     0.711070000000     0.776980000000     0.0577308  
H109     H      0.246230000000     0.792180000000     0.742900000000     0.0438923  
H110     H      0.327710000000     0.691760000000     0.840570000000     0.0322282  
H111     H      0.332160000000     0.729600000000     0.105120000000     0.0318988  
H112     H      0.190890000000     0.772470000000     0.379120000000     0.0321727  
H113     H      0.305200000000     0.743200000000     0.242860000000     0.0428711  
H114     H      0.218290000000     0.761760000000     0.242340000000     0.0407605  
H115     H      0.209000000000     0.753030000000     0.318060000000     0.0596557  
H116     H      0.235970000000     0.742300000000     0.179810000000     0.0415455  
H117     H      0.269210000000     0.800610000000     0.326450000000     0.084072   
H118     H      0.315250000000     0.749840000000     0.167300000000     0.0576919  
H119     H      0.252980000000     0.704430000000     0.159170000000     0.0568587  
H120     H      0.287490000000     0.762790000000     0.305410000000     0.0440219  
H121     H      0.270210000000     0.684990000000     0.096670000000     0.0325531  
H122     H      0.605750000000     0.687210000000     0.065150000000     0.0364784  
H123     H      0.404000000000     0.713300000000     0.977430000000     0.0313933  
H124     H      0.528720000000     0.663270000000     0.057290000000     0.0423127  
H125     H      0.482390000000     0.704110000000     0.941580000000     0.040793   
H126     H      0.447080000000     0.717180000000     0.979100000000     0.0600405  
H127     H      0.525990000000     0.706440000000     0.941270000000     0.0422539  
H128     H      0.453110000000     0.644120000000     0.020270000000     0.0833113  
H129     H      0.562360000000     0.688640000000     0.067350000000     0.0585549  
H130     H      0.560320000000     0.682090000000     0.928240000000     0.0569964  
H131     H      0.485200000000     0.662100000000     0.058950000000     0.0434383  
H132     H      0.603800000000     0.681530000000     0.927270000000     0.0319059  
H133     H      0.295340000000     0.328530000000     0.831030000000     0.0388144  
H134     H      0.229350000000     0.178040000000     0.590990000000     0.0324149  
H135     H      0.285430000000     0.289100000000     0.703920000000     0.0444714  
H136     H      0.238030000000     0.215050000000     0.722830000000     0.041744   
H137     H      0.250140000000     0.195280000000     0.652070000000     0.060748   
H138     H      0.257110000000     0.233180000000     0.785670000000     0.0422322  
H139     H      0.222910000000     0.264370000000     0.617090000000     0.0851275  
H140     H      0.277300000000     0.310380000000     0.767860000000     0.0601673  
H141     H      0.294150000000     0.240870000000     0.820160000000     0.0577782  
H142     H      0.265640000000     0.271280000000     0.641480000000     0.0450992  
H143     H      0.311140000000     0.259750000000     0.883730000000     0.0327767  
H144     H      0.270480000000     0.320280000000     0.076820000000     0.0357561  
H145     H      0.238440000000     0.185670000000     0.367020000000     0.0359806  
H146     H      0.229700000000     0.265510000000     0.158330000000     0.0438818  
H147     H      0.279780000000     0.237970000000     0.281710000000     0.0418319  
H148     H      0.257920000000     0.202690000000     0.304570000000     0.0620323  
H149     H      0.298970000000     0.255960000000     0.218780000000     0.0425276  
H150     H      0.202830000000     0.256100000000     0.296150000000     0.0853229  
H151     H      0.251350000000     0.301960000000     0.139030000000     0.0592661  
H152     H      0.306760000000     0.248340000000     0.141910000000     0.0575307  
H153     H      0.210510000000     0.247410000000     0.221050000000     0.0452448  
H154     H      0.325580000000     0.267350000000     0.079960000000     0.0327507  
H155     H      0.607710000000     0.326150000000     0.910240000000     0.0374476  
H156     H      0.407450000000     0.323020000000     0.034680000000     0.0323147  
H157     H      0.528990000000     0.348550000000     0.918310000000     0.0433606  
H158     H      0.484670000000     0.297440000000     0.022010000000     0.041271   
H159     H      0.450570000000     0.322830000000     0.036670000000     0.0599172  
H160     H      0.528310000000     0.298800000000     0.025290000000     0.0428495  
H161     H      0.452170000000     0.320950000000     0.897630000000     0.0841841  
H162     H      0.564320000000     0.323800000000     0.905390000000     0.059868   
H163     H      0.560310000000     0.326570000000     0.044680000000     0.0571895  
H164     H      0.485350000000     0.347270000000     0.915110000000     0.0440707  
H165     H      0.603740000000     0.328540000000     0.048300000000     0.0325359  
H166     H      0.318970000000     0.598700000000     0.919700000000     0.0323239  
H167     H      0.356630000000     0.404610000000     0.001190000000     0.0323495  
H168     H      0.290720000000     0.521740000000     0.930370000000     0.0424879  
H169     H      0.335210000000     0.478520000000     0.045620000000     0.0413576  
H170     H      0.353380000000     0.447280000000     0.004720000000     0.0607118  
H171     H      0.334240000000     0.521810000000     0.046340000000     0.0440552  
H172     H      0.279580000000     0.442750000000     0.964900000000     0.0839999  
H173     H      0.316140000000     0.555570000000     0.918750000000     0.058063   
H174     H      0.308970000000     0.555490000000     0.057790000000     0.0584709  
H175     H      0.292780000000     0.478370000000     0.928390000000     0.0441446  
H176     H      0.312620000000     0.598550000000     0.057520000000     0.0347424  
In1      In     0.331450000000     0.326850000000     0.970320000000     2.41512    
In2      In     0.330250000000     0.672830000000     0.991000000000     2.41032    
In3      In     0.681590000000     0.331200000000     0.986570000000     2.42714    
In4      In     0.680700000000     0.679510000000     0.994530000000     2.42012    
In5      In     0.828090000000     0.174720000000     0.488760000000     2.42025    
In6      In     0.834090000000     0.829310000000     0.494800000000     2.42377    
In7      In     0.183990000000     0.829500000000     0.488770000000     2.42398    
In8      In     0.177520000000     0.177740000000     0.470900000000     2.43063    
N1       N      0.182990000000     0.105160000000     0.466090000000    -0.207911   
N2       N      0.186660000000     0.901930000000     0.480390000000    -0.193444   
N3       N      0.907090000000     0.822120000000     0.496040000000    -0.208571   
N4       N      0.111380000000     0.822180000000     0.494010000000    -0.195205   
N5       N      0.818890000000     0.900480000000     0.494120000000    -0.207311   
N6       N      0.815950000000     0.103240000000     0.487330000000    -0.194415   
N7       N      0.900850000000     0.183290000000     0.489450000000    -0.208368   
N8       N      0.104910000000     0.184050000000     0.479170000000    -0.194226   
N9       N      0.805470000000     0.799230000000     0.603700000000    -0.207754   
N10      N      0.714580000000     0.712180000000     0.894000000000    -0.194675   
N11      N      0.713120000000     0.713600000000     0.095620000000    -0.208268   
N12      N      0.804020000000     0.799680000000     0.387360000000    -0.194645   
N13      N      0.713970000000     0.294240000000     0.889310000000    -0.207381   
N14      N      0.799390000000     0.206320000000     0.595330000000    -0.195583   
N15      N      0.798080000000     0.203710000000     0.379790000000    -0.207442   
N16      N      0.713170000000     0.298470000000     0.089850000000    -0.194321   
N17      N      0.688050000000     0.403760000000     0.984780000000    -0.208666   
N18      N      0.685670000000     0.607090000000     0.993650000000    -0.19499    
N19      N      0.218180000000     0.797600000000     0.590890000000    -0.207983   
N20      N      0.300770000000     0.704360000000     0.884190000000    -0.195742   
N21      N      0.219290000000     0.797860000000     0.388680000000    -0.207541   
N22      N      0.302370000000     0.705930000000     0.096420000000    -0.194356   
N23      N      0.403350000000     0.676750000000     0.998440000000    -0.209132   
N24      N      0.607840000000     0.684130000000     0.996110000000    -0.194131   
N25      N      0.213760000000     0.210940000000     0.568710000000    -0.207948   
N26      N      0.304390000000     0.295440000000     0.861940000000    -0.193938   
N27      N      0.209110000000     0.210520000000     0.367650000000    -0.206581   
N28      N      0.299360000000     0.295130000000     0.074010000000    -0.194887   
N29      N      0.404440000000     0.322580000000     0.965270000000    -0.208111   
N30      N      0.608790000000     0.327510000000     0.979570000000    -0.193858   
N31      N      0.320350000000     0.398620000000     0.980130000000    -0.207437   
N32      N      0.316360000000     0.601630000000     0.988680000000    -0.193942   
O1       O      0.301890000000     0.324230000000     0.021210000000    -0.499471   
O2       O      0.329020000000     0.297800000000     0.022300000000    -0.493722   
O3       O      0.315450000000     0.328220000000     0.902260000000    -0.487712   
O4       O      0.308180000000     0.360150000000     0.963160000000    -0.464682   
O5       O      0.368310000000     0.323840000000     0.001660000000    -0.495907   
O6       O      0.343200000000     0.364490000000     0.988190000000    -0.502863   
O7       O      0.321220000000     0.294130000000     0.930330000000    -0.501879   
O8       O      0.366730000000     0.325020000000     0.933260000000    -0.482238   
O9       O      0.301210000000     0.694730000000     0.956880000000    -0.506748   
O10      O      0.329960000000     0.682000000000     0.918710000000    -0.494735   
O11      O      0.301020000000     0.678380000000     0.041180000000    -0.491573   
O12      O      0.321480000000     0.637470000000     0.023900000000    -0.487867   
O13      O      0.365930000000     0.692610000000     0.982790000000    -0.496183   
O14      O      0.323150000000     0.637910000000     0.955260000000    -0.498599   
O15      O      0.332070000000     0.700210000000     0.045530000000    -0.499529   
O16      O      0.366900000000     0.657610000000     0.008000000000    -0.487435   
O17      O      0.682160000000     0.303770000000     0.041100000000    -0.494891   
O18      O      0.712470000000     0.326410000000     0.034710000000    -0.499991   
O19      O      0.685020000000     0.299040000000     0.942310000000    -0.480462   
O20      O      0.646430000000     0.328700000000     0.948860000000    -0.491323   
O21      O      0.685020000000     0.367360000000     0.019890000000    -0.504632   
O22      O      0.644470000000     0.330080000000     0.017410000000    -0.496403   
O23      O      0.710620000000     0.326530000000     0.935340000000    -0.493724   
O24      O      0.685560000000     0.366800000000     0.951580000000    -0.479761   
O25      O      0.710510000000     0.683330000000     0.045050000000    -0.500252   
O26      O      0.683390000000     0.709600000000     0.043420000000    -0.479775   
O27      O      0.711060000000     0.682570000000     0.945640000000    -0.50132    
O28      O      0.682970000000     0.643780000000     0.959990000000    -0.501536   
O29      O      0.644910000000     0.682610000000     0.029440000000    -0.493546   
O30      O      0.683880000000     0.643380000000     0.028690000000    -0.497526   
O31      O      0.684070000000     0.709250000000     0.944110000000    -0.494894   
O32      O      0.644180000000     0.681510000000     0.960780000000    -0.497115   
O33      O      0.798150000000     0.177970000000     0.438760000000    -0.477667   
O34      O      0.828720000000     0.199640000000     0.430030000000    -0.491914   
O35      O      0.828400000000     0.184040000000     0.560880000000    -0.500171   
O36      O      0.814550000000     0.140260000000     0.519750000000    -0.500873   
O37      O      0.861840000000     0.197920000000     0.488100000000    -0.471899   
O38      O      0.828250000000     0.138510000000     0.455740000000    -0.493504   
O39      O      0.799440000000     0.196820000000     0.522750000000    -0.501227   
O40      O      0.866320000000     0.160550000000     0.490020000000    -0.506438   
O41      O      0.834600000000     0.803640000000     0.437480000000    -0.496167   
O42      O      0.804040000000     0.825780000000     0.444940000000    -0.498687   
O43      O      0.832320000000     0.824010000000     0.568000000000    -0.470773   
O44      O      0.868370000000     0.807130000000     0.501730000000    -0.475556   
O45      O      0.832640000000     0.865830000000     0.462220000000    -0.49553    
O46      O      0.872110000000     0.843870000000     0.488770000000    -0.503886   
O47      O      0.808060000000     0.804370000000     0.529530000000    -0.505165   
O48      O      0.819410000000     0.862960000000     0.526070000000    -0.473817   
O49      O      0.190380000000     0.798240000000     0.535060000000    -0.50515    
O50      O      0.211790000000     0.828970000000     0.543000000000    -0.473763   
O51      O      0.187620000000     0.801280000000     0.436390000000    -0.499648   
O52      O      0.147370000000     0.823350000000     0.457390000000    -0.49793    
O53      O      0.185890000000     0.866550000000     0.518730000000    -0.489085   
O54      O      0.148580000000     0.827580000000     0.525560000000    -0.502657   
O55      O      0.215760000000     0.826260000000     0.442840000000    -0.476336   
O56      O      0.185090000000     0.864350000000     0.450180000000    -0.495029   
O57      O      0.178600000000     0.205830000000     0.417780000000    -0.472506   
O58      O      0.207950000000     0.182090000000     0.422170000000    -0.495686   
O59      O      0.186100000000     0.210150000000     0.512460000000    -0.478849   
O60      O      0.142820000000     0.182150000000     0.509300000000    -0.499781   
O61      O      0.181150000000     0.142690000000     0.434190000000    -0.477654   
O62      O      0.140110000000     0.179870000000     0.440970000000    -0.491235   
O63      O      0.205010000000     0.178330000000     0.525870000000    -0.499006   
O64      O      0.179650000000     0.140970000000     0.502430000000    -0.50098    


