data_structure

_audit_creation_method RASPA-1.0
_audit_creation_date 2023-6-5
_audit_author_name 'Poobodin Mano'

_cell_length_a    55.7633
_cell_length_b    55.892
_cell_length_c    30.8575
_cell_angle_alpha 89.7767
_cell_angle_beta  90.2233
_cell_angle_gamma 89.9997
_cell_volume      96172.8

_symmetry_cell_setting          triclinic
_symmetry_space_group_name_Hall 'P 1'
_symmetry_space_group_name_H-M  'P 1'
_symmetry_Int_Tables_number     1

_symmetry_equiv_pos_as_xyz 'x,y,z'

loop_
_atom_site_label
_atom_site_type_symbol
_atom_site_fract_x
_atom_site_fract_y
_atom_site_fract_z
_atom_site_charge
C1       C      0.334360000000     0.387720000000     0.987630000000     0.410976   
C2       C      0.314130000000     0.315310000000     0.931690000000     0.417474   
C3       C      0.387410000000     0.335560000000     0.991340000000     0.416808   
C4       C      0.320620000000     0.320520000000     0.066460000000     0.419247   
C5       C      0.319780000000     0.640210000000     0.982880000000     0.417331   
C6       C      0.303770000000     0.713360000000     0.058000000000     0.415183   
C7       C      0.371670000000     0.694640000000     0.004510000000     0.418378   
C8       C      0.299380000000     0.704650000000     0.922580000000     0.417705   
C9       C      0.639660000000     0.312600000000     0.990180000000     0.414638   
C10      C      0.709610000000     0.301440000000     0.915940000000     0.413666   
C11      C      0.692200000000     0.368400000000     0.980130000000     0.418671   
C12      C      0.706010000000     0.298620000000     0.057850000000     0.416417   
C13      C      0.680760000000     0.620810000000     0.969840000000     0.411994   
C14      C      0.689320000000     0.691270000000     0.901990000000     0.426921   
C15      C      0.623630000000     0.674700000000     0.980250000000     0.414628   
C16      C      0.693930000000     0.689360000000     0.040610000000     0.415886   
C17      C      0.832000000000     0.123950000000     0.490240000000     0.412393   
C18      C      0.823390000000     0.192770000000     0.557990000000     0.420519   
C19      C      0.891730000000     0.173900000000     0.484440000000     0.420303   
C20      C      0.822800000000     0.192230000000     0.418350000000     0.409352   
C21      C      0.868640000000     0.824310000000     0.473830000000     0.415332   
C22      C      0.797170000000     0.801760000000     0.538590000000     0.410076   
C23      C      0.813600000000     0.872040000000     0.476980000000     0.420444   
C24      C      0.800510000000     0.801150000000     0.404120000000     0.413893   
C25      C      0.121750000000     0.828430000000     0.495370000000     0.412123   
C26      C      0.193750000000     0.820490000000     0.420660000000     0.412778   
C27      C      0.177230000000     0.883550000000     0.488380000000     0.415618   
C28      C      0.182650000000     0.812530000000     0.565200000000     0.416862   
C29      C      0.144880000000     0.187030000000     0.481030000000     0.413309   
C30      C      0.211960000000     0.202530000000     0.565460000000     0.409836   
C31      C      0.199760000000     0.134690000000     0.497900000000     0.415811   
C32      C      0.212960000000     0.206910000000     0.426980000000     0.411776   
C33      C      0.166250000000     0.948520000000     0.478540000000    -0.059535   
C34      C      0.208070000000     0.097840000000     0.462940000000     0.0775044  
C35      C      0.196050000000     0.098080000000     0.536580000000     0.0766834  
C36      C      0.208070000000     0.072850000000     0.462730000000    -0.0939374  
C37      C      0.216170000000     0.019340000000     0.479040000000    -0.0321293  
C38      C      0.213100000000     0.994520000000     0.476830000000    -0.0359289  
C39      C      0.198830000000     0.033770000000     0.499110000000    -0.00677845 
C40      C      0.195700000000     0.073100000000     0.537430000000    -0.0942157  
C41      C      0.192470000000     0.983730000000     0.494150000000     0.00029183 
C42      C      0.206780000000     0.941430000000     0.501860000000    -0.0846631  
C43      C      0.175280000000     0.998150000000     0.514560000000    -0.035929   
C44      C      0.202260000000     0.916870000000     0.501080000000     0.0737945  
C45      C      0.161930000000     0.923790000000     0.478590000000     0.0305871  
C46      C      0.178450000000     0.022860000000     0.517110000000    -0.03157    
C47      C      0.201340000000     0.060190000000     0.500010000000     0.0527754  
C48      C      0.188620000000     0.957530000000     0.490840000000     0.0410351  
C49      C      0.136730000000     0.916340000000     0.470890000000     0.293119   
C50      C      0.931890000000     0.835960000000     0.445490000000    -0.0588583  
C51      C      0.086470000000     0.808290000000     0.471760000000     0.0782466  
C52      C      0.083520000000     0.841800000000     0.518370000000     0.0805252  
C53      C      0.061470000000     0.806560000000     0.469580000000    -0.0931377  
C54      C      0.007890000000     0.801180000000     0.490880000000    -0.0321998  
C55      C      0.982840000000     0.801060000000     0.487650000000    -0.0358132  
C56      C      0.020710000000     0.822750000000     0.487540000000    -0.0061972  
C57      C      0.058540000000     0.840730000000     0.516610000000    -0.0925413  
C58      C      0.970200000000     0.822490000000     0.480440000000     0.000306448
C59      C      0.929840000000     0.810470000000     0.508210000000    -0.0848124  
C60      C      0.983070000000     0.844000000000     0.476690000000    -0.0356876  
C61      C      0.904880000000     0.811870000000     0.506490000000     0.0728252  
C62      C      0.906750000000     0.837450000000     0.444680000000     0.0288302  
C63      C      0.008020000000     0.844140000000     0.480330000000    -0.0315996  
C64      C      0.047230000000     0.823170000000     0.491590000000     0.0532897  
C65      C      0.943630000000     0.822620000000     0.477570000000     0.0404707  
C66      C      0.896190000000     0.854710000000     0.413240000000     0.295455   
C67      C      0.805090000000     0.935370000000     0.446000000000    -0.0586683  
C68      C      0.832380000000     0.086580000000     0.527100000000     0.0805626  
C69      C      0.819050000000     0.088740000000     0.454110000000     0.0782465  
C70      C      0.829240000000     0.061800000000     0.527360000000    -0.0932145  
C71      C      0.836320000000     0.009080000000     0.508100000000    -0.0316908  
C72      C      0.834410000000     0.984180000000     0.506500000000    -0.0349475  
C73      C      0.818610000000     0.023680000000     0.489110000000    -0.00592398 
C74      C      0.815640000000     0.063990000000     0.453270000000    -0.0928932  
C75      C      0.814740000000     0.973260000000     0.485930000000     0.000681875
C76      C      0.819120000000     0.932600000000     0.519520000000    -0.0846185  
C77      C      0.796940000000     0.987870000000     0.467180000000    -0.0353982  
C78      C      0.818140000000     0.907740000000     0.516630000000     0.076215   
C79      C      0.803670000000     0.910280000000     0.444100000000     0.033033   
C80      C      0.798870000000     0.012790000000     0.468700000000    -0.0316641  
C81      C      0.821000000000     0.050160000000     0.490030000000     0.0535421  
C82      C      0.812990000000     0.946740000000     0.483760000000     0.0421235  
C83      C      0.792220000000     0.900030000000     0.404800000000     0.294951   
C84      C      0.956100000000     0.160910000000     0.500820000000    -0.0586144  
C85      C      0.107370000000     0.203480000000     0.501870000000     0.0771127  
C86      C      0.108920000000     0.173370000000     0.448060000000     0.0771993  
C87      C      0.082320000000     0.203480000000     0.500210000000    -0.093674   
C88      C      0.029280000000     0.206680000000     0.477310000000    -0.0323095  
C89      C      0.004280000000     0.204790000000     0.478980000000    -0.0360574  
C90      C      0.043620000000     0.186160000000     0.472360000000    -0.00662902 
C91      C      0.083930000000     0.173020000000     0.445330000000    -0.094145   
C92      C      0.993040000000     0.182340000000     0.475740000000     0.000330923
C93      C      0.951410000000     0.196500000000     0.457790000000    -0.0846815  
C94      C      0.007380000000     0.161900000000     0.470150000000    -0.0360816  
C95      C      0.926580000000     0.193640000000     0.459840000000     0.0721802  
C96      C      0.931110000000     0.157960000000     0.501460000000     0.0276725  
C97      C      0.032310000000     0.163770000000     0.468660000000    -0.031759   
C98      C      0.070260000000     0.187830000000     0.472210000000     0.052436   
C99      C      0.966510000000     0.180070000000     0.478490000000     0.0399398  
C100     C      0.922180000000     0.135330000000     0.520880000000     0.296585   
C101     C      0.698230000000     0.734170000000     0.811980000000    -0.0599691  
C102     C      0.794180000000     0.769410000000     0.588450000000     0.0768983  
C103     C      0.765600000000     0.800820000000     0.589970000000     0.077484   
C104     C      0.782870000000     0.758070000000     0.623230000000    -0.0936413  
C105     C      0.747540000000     0.732030000000     0.681640000000    -0.0323774  
C106     C      0.736740000000     0.721310000000     0.717610000000    -0.0356738  
C107     C      0.750630000000     0.756980000000     0.679760000000    -0.00629865 
C108     C      0.753870000000     0.789990000000     0.624770000000    -0.0934947  
C109     C      0.728780000000     0.735280000000     0.752500000000     0.000161869
C110     C      0.727950000000     0.703120000000     0.809150000000    -0.0855728  
C111     C      0.731740000000     0.760240000000     0.750480000000    -0.0354399  
C112     C      0.718160000000     0.693040000000     0.846460000000     0.0752813  
C113     C      0.688970000000     0.724040000000     0.850160000000     0.0327434  
C114     C      0.742520000000     0.770960000000     0.714540000000    -0.031679   
C115     C      0.762520000000     0.768410000000     0.641990000000     0.0526509  
C116     C      0.717970000000     0.723870000000     0.791360000000     0.0416229  
C117     C      0.670190000000     0.738070000000     0.872660000000     0.291195   
C118     C      0.731000000000     0.730590000000     0.105940000000    -0.0593766  
C119     C      0.801910000000     0.770510000000     0.350960000000     0.0777805  
C120     C      0.768990000000     0.797350000000     0.352730000000     0.0782378  
C121     C      0.791980000000     0.758760000000     0.315230000000    -0.0933234  
C122     C      0.759510000000     0.729730000000     0.255250000000    -0.0322272  
C123     C      0.749190000000     0.718730000000     0.219050000000    -0.0356769  
C124     C      0.759480000000     0.754790000000     0.259100000000    -0.00610758 
C125     C      0.758600000000     0.786090000000     0.317020000000    -0.0929745  
C126     C      0.738780000000     0.732570000000     0.185820000000     0.000268206
C127     C      0.712670000000     0.701170000000     0.152090000000    -0.0851752  
C128     C      0.738850000000     0.757620000000     0.189660000000    -0.0353594  
C129     C      0.701440000000     0.691320000000     0.115840000000     0.074435   
C130     C      0.719120000000     0.720750000000     0.070010000000     0.0309533  
C131     C      0.749070000000     0.768600000000     0.225840000000    -0.0315555  
C132     C      0.770130000000     0.766610000000     0.297690000000     0.0529466  
C133     C      0.727620000000     0.721050000000     0.147410000000     0.0412157  
C134     C      0.721310000000     0.734220000000     0.028650000000     0.293488   
C135     C      0.720920000000     0.265000000000     0.818720000000    -0.0592426  
C136     C      0.825770000000     0.220520000000     0.616120000000     0.0778868  
C137     C      0.790200000000     0.198100000000     0.604840000000     0.0790861  
C138     C      0.815410000000     0.232070000000     0.651550000000    -0.093793   
C139     C      0.792710000000     0.243000000000     0.739510000000    -0.0320719  
C140     C      0.781300000000     0.253820000000     0.774690000000    -0.0357622  
C141     C      0.780190000000     0.238980000000     0.700570000000    -0.00657607 
C142     C      0.779280000000     0.209340000000     0.639900000000    -0.0943863  
C143     C      0.757140000000     0.260860000000     0.771620000000     0.000443036
C144     C      0.755700000000     0.288630000000     0.835390000000    -0.0843726  
C145     C      0.744830000000     0.257310000000     0.732310000000    -0.035917   
C146     C      0.743310000000     0.298720000000     0.870060000000     0.0727816  
C147     C      0.708570000000     0.275800000000     0.852990000000     0.0305735  
C148     C      0.756200000000     0.246470000000     0.697270000000    -0.0317595  
C149     C      0.791830000000     0.226640000000     0.663640000000     0.0531233  
C150     C      0.744560000000     0.271490000000     0.809350000000     0.040614   
C151     C      0.682510000000     0.270550000000     0.855840000000     0.296729   
C152     C      0.726550000000     0.287590000000     0.170080000000    -0.0590906  
C153     C      0.814320000000     0.192610000000     0.342790000000     0.0775828  
C154     C      0.798720000000     0.223080000000     0.387910000000     0.0769724  
C155     C      0.802960000000     0.202730000000     0.306660000000    -0.0933442  
C156     C      0.787400000000     0.235440000000     0.232600000000    -0.0319858  
C157     C      0.775460000000     0.245760000000     0.197240000000    -0.0356659  
C158     C      0.776360000000     0.234220000000     0.273450000000    -0.00629936 
C159     C      0.787150000000     0.233670000000     0.352510000000    -0.0935006  
C160     C      0.752230000000     0.255160000000     0.201960000000     0.000540239
C161     C      0.740090000000     0.256010000000     0.123650000000    -0.0843778  
C162     C      0.741140000000     0.253770000000     0.242710000000    -0.0357102  
C163     C      0.728000000000     0.266820000000     0.089080000000     0.0730315  
C164     C      0.714110000000     0.297940000000     0.135070000000     0.0305898  
C165     C      0.753040000000     0.243420000000     0.278000000000    -0.0316583  
C166     C      0.789040000000     0.223440000000     0.311270000000     0.0525482  
C167     C      0.739630000000     0.266480000000     0.164640000000     0.040911   
C168     C      0.698310000000     0.318520000000     0.145400000000     0.294069   
C169     C      0.707900000000     0.431280000000     0.004040000000    -0.0585004  
C170     C      0.675660000000     0.583500000000     0.934660000000     0.0773013  
C171     C      0.696580000000     0.585300000000     0.001650000000     0.0761132  
C172     C      0.678130000000     0.558670000000     0.933790000000    -0.0943548  
C173     C      0.671150000000     0.506550000000     0.958680000000    -0.0323706  
C174     C      0.672250000000     0.481610000000     0.959730000000    -0.0359149  
C175     C      0.691510000000     0.520340000000     0.968290000000    -0.00673948 
C176     C      0.699580000000     0.560450000000     0.001600000000    -0.0935258  
C177     C      0.693830000000     0.469800000000     0.970010000000     0.000516937
C178     C      0.681220000000     0.429440000000     0.942870000000    -0.0845018  
C179     C      0.714270000000     0.483650000000     0.979440000000    -0.0360642  
C180     C      0.680720000000     0.404630000000     0.946890000000     0.0737899  
C181     C      0.706980000000     0.406200000000     0.007820000000     0.0291254  
C182     C      0.713090000000     0.508660000000     0.978800000000    -0.0318977  
C183     C      0.689990000000     0.546830000000     0.967700000000     0.0524521  
C184     C      0.694680000000     0.443170000000     0.971860000000     0.040352   
C185     C      0.718820000000     0.395570000000     0.046550000000     0.29682    
C186     C      0.203950000000     0.800670000000     0.676520000000    -0.0590894  
C187     C      0.299170000000     0.723120000000     0.853160000000     0.0803808  
C188     C      0.262450000000     0.712430000000     0.886540000000     0.0806204  
C189     C      0.286870000000     0.732540000000     0.817490000000    -0.0926281  
C190     C      0.256440000000     0.739680000000     0.736590000000    -0.0320061  
C191     C      0.244340000000     0.750480000000     0.701930000000    -0.0353251  
C192     C      0.248380000000     0.742760000000     0.779330000000    -0.00583241 
C193     C      0.249560000000     0.721730000000     0.851400000000    -0.0930113  
C194     C      0.223960000000     0.764680000000     0.709210000000     0.000361516
C195     C      0.207680000000     0.765200000000     0.633360000000    -0.0851389  
C196     C      0.215690000000     0.767470000000     0.751880000000    -0.035429   
C197     C      0.196880000000     0.777290000000     0.598820000000     0.0730491  
C198     C      0.192650000000     0.812370000000     0.641630000000     0.0296415  
C199     C      0.227750000000     0.756620000000     0.786530000000    -0.0313636  
C200     C      0.261750000000     0.732060000000     0.816390000000     0.0538428  
C201     C      0.211720000000     0.776990000000     0.672520000000     0.0407471  
C202     C      0.182210000000     0.836280000000     0.650700000000     0.295504   
C203     C      0.285310000000     0.762130000000     0.131390000000    -0.0583459  
C204     C      0.229120000000     0.804790000000     0.388810000000     0.0767552  
C205     C      0.194250000000     0.810680000000     0.345840000000     0.0769081  
C206     C      0.241320000000     0.795400000000     0.353260000000    -0.0936472  
C207     C      0.256170000000     0.762060000000     0.280440000000    -0.0321377  
C208     C      0.266960000000     0.751310000000     0.244650000000    -0.0358559  
C209     C      0.242030000000     0.782710000000     0.275270000000    -0.00638653 
C210     C      0.205930000000     0.801460000000     0.309590000000    -0.0933639  
C211     C      0.263940000000     0.761000000000     0.202880000000     0.000544437
C212     C      0.273090000000     0.724120000000     0.160330000000    -0.0846256  
C213     C      0.250140000000     0.781880000000     0.197790000000    -0.0357704  
C214     C      0.282510000000     0.713000000000     0.123850000000     0.0730702  
C215     C      0.294320000000     0.750610000000     0.094420000000     0.0290217  
C216     C      0.239270000000     0.792590000000     0.233570000000    -0.0317936  
C217     C      0.229690000000     0.793490000000     0.313080000000     0.0524329  
C218     C      0.274520000000     0.748930000000     0.164610000000     0.0404467  
C219     C      0.302610000000     0.766370000000     0.058660000000     0.296617   
C220     C      0.434600000000     0.711430000000     0.984500000000    -0.0590985  
C221     C      0.583920000000     0.663260000000     0.961600000000     0.0774989  
C222     C      0.590390000000     0.694740000000     0.011600000000     0.0782818  
C223     C      0.559130000000     0.665770000000     0.965760000000    -0.0932381  
C224     C      0.508310000000     0.665650000000     0.999960000000    -0.0320812  
C225     C      0.483480000000     0.668200000000     0.003570000000    -0.0353912  
C226     C      0.523300000000     0.685870000000     0.998550000000    -0.00609429 
C227     C      0.565670000000     0.697720000000     0.016590000000    -0.0928696  
C228     C      0.473010000000     0.691030000000     0.005950000000     0.000666847
C229     C      0.432850000000     0.678240000000     0.034070000000    -0.0848941  
C230     C      0.488000000000     0.711260000000     0.005100000000    -0.0354545  
C231     C      0.407910000000     0.679970000000     0.033940000000     0.0737785  
C232     C      0.409470000000     0.713240000000     0.985650000000     0.0312851  
C233     C      0.512860000000     0.708710000000     0.001430000000    -0.0313149  
C234     C      0.549680000000     0.683100000000     0.993620000000     0.0527622  
C235     C      0.446490000000     0.693640000000     0.008300000000     0.0412577  
C236     C      0.398640000000     0.734460000000     0.964010000000     0.294759   
C237     C      0.292620000000     0.267240000000     0.859670000000    -0.058831   
C238     C      0.244560000000     0.221640000000     0.601000000000     0.0759256  
C239     C      0.208210000000     0.214830000000     0.638740000000     0.0767991  
C240     C      0.254520000000     0.232650000000     0.637410000000    -0.0937468  
C241     C      0.264710000000     0.267760000000     0.710300000000    -0.0323813  
C242     C      0.274360000000     0.278890000000     0.746920000000    -0.0359793  
C243     C      0.251290000000     0.246580000000     0.714360000000    -0.00661963 
C244     C      0.217650000000     0.225620000000     0.675820000000    -0.0937522  
C245     C      0.270910000000     0.269020000000     0.788390000000     0.000203326
C246     C      0.279920000000     0.305520000000     0.832350000000    -0.0851379  
C247     C      0.257490000000     0.247840000000     0.792460000000    -0.0360086  
C248     C      0.290160000000     0.316330000000     0.868610000000     0.0726189  
C249     C      0.302450000000     0.278440000000     0.896360000000     0.028748   
C250     C      0.247730000000     0.236780000000     0.755860000000    -0.0319756  
C251     C      0.241040000000     0.234780000000     0.675420000000     0.0522558  
C252     C      0.281380000000     0.280750000000     0.827210000000     0.0402118  
C253     C      0.311160000000     0.262460000000     0.931640000000     0.295691   
C254     C      0.312670000000     0.283750000000     0.165100000000    -0.0586771  
C255     C      0.211000000000     0.236880000000     0.372210000000     0.0765429  
C256     C      0.245780000000     0.212740000000     0.379400000000     0.0782544  
C257     C      0.221130000000     0.248970000000     0.337030000000    -0.0941487  
C258     C      0.242160000000     0.259790000000     0.247540000000    -0.032259   
C259     C      0.253000000000     0.270850000000     0.211920000000    -0.0355447  
C260     C      0.255330000000     0.255410000000     0.285670000000    -0.00667179 
C261     C      0.256530000000     0.224580000000     0.344650000000    -0.0943081  
C262     C      0.277190000000     0.277910000000     0.213780000000     0.000490262
C263     C      0.276720000000     0.305960000000     0.150050000000    -0.08455    
C264     C      0.290190000000     0.273900000000     0.252290000000    -0.0357877  
C265     C      0.288050000000     0.316440000000     0.114530000000     0.0750166  
C266     C      0.324000000000     0.295030000000     0.129980000000     0.031825   
C267     C      0.279410000000     0.262690000000     0.287730000000    -0.031969   
C268     C      0.244180000000     0.242880000000     0.322940000000     0.0528337  
C269     C      0.288930000000     0.289250000000     0.175650000000     0.041421   
C270     C      0.350060000000     0.290350000000     0.125170000000     0.295264   
C271     C      0.576670000000     0.304760000000     0.956760000000    -0.058836   
C272     C      0.425020000000     0.339050000000     0.027030000000     0.0795834  
C273     C      0.423150000000     0.323900000000     0.955420000000     0.0786193  
C274     C      0.449880000000     0.336130000000     0.027810000000    -0.093077   
C275     C      0.503210000000     0.340780000000     0.010500000000    -0.0318242  
C276     C      0.528060000000     0.337610000000     0.011000000000    -0.0355237  
C277     C      0.488120000000     0.323400000000     0.992080000000    -0.00613137 
C278     C      0.448000000000     0.320690000000     0.955120000000    -0.093252   
C279     C      0.538410000000     0.316960000000     0.993110000000     0.000767305
C280     C      0.578580000000     0.319930000000     0.029440000000    -0.0836669  
C281     C      0.523310000000     0.299540000000     0.974810000000    -0.0354465  
C282     C      0.603480000000     0.317980000000     0.028250000000     0.0738363  
C283     C      0.601760000000     0.302420000000     0.956600000000     0.0309882  
C284     C      0.498450000000     0.302730000000     0.974270000000    -0.031415   
C285     C      0.461680000000     0.326790000000     0.991630000000     0.0532463  
C286     C      0.564890000000     0.313860000000     0.993100000000     0.0407736  
C287     C      0.612460000000     0.289550000000     0.919320000000     0.297085   
C288     C      0.324590000000     0.578830000000     0.939840000000    -0.0592117  
C289     C      0.324670000000     0.424710000000     0.020770000000     0.0773015  
C290     C      0.337100000000     0.423980000000     0.947390000000     0.0770069  
C291     C      0.322320000000     0.449560000000     0.019120000000    -0.0935723  
C292     C      0.306120000000     0.500130000000     0.999460000000    -0.0323548  
C293     C      0.304380000000     0.525060000000     0.998720000000    -0.0363903  
C294     C      0.325200000000     0.488470000000     0.978640000000    -0.0066356  
C295     C      0.334920000000     0.448840000000     0.944570000000    -0.0936764  
C296     C      0.321630000000     0.538940000000     0.977070000000     0.000327754
C297     C      0.314040000000     0.577650000000     0.015200000000    -0.0849105  
C298     C      0.340520000000     0.527300000000     0.955690000000    -0.0364439  
C299     C      0.313210000000     0.602550000000     0.015360000000     0.0730757  
C300     C      0.323060000000     0.603950000000     0.940400000000     0.0280067  
C301     C      0.342300000000     0.502350000000     0.956510000000    -0.0317028  
C302     C      0.327460000000     0.461970000000     0.980720000000     0.0523461  
C303     C      0.320160000000     0.565490000000     0.977390000000     0.0399813  
C304     C      0.324680000000     0.616440000000     0.897910000000     0.296451   
H1       H      0.191160000000     0.107450000000     0.565960000000     0.0296447  
H2       H      0.216970000000     0.905070000000     0.509780000000     0.0341736  
H3       H      0.164640000000     0.033510000000     0.532380000000     0.0408666  
H4       H      0.226610000000     0.983820000000     0.460850000000     0.0420577  
H5       H      0.224290000000     0.947750000000     0.511910000000     0.0556064  
H6       H      0.232130000000     0.027250000000     0.465100000000     0.0403805  
H7       H      0.151870000000     0.960820000000     0.470280000000     0.0590529  
H8       H      0.190760000000     0.063970000000     0.567110000000     0.0564832  
H9       H      0.212440000000     0.063540000000     0.433070000000     0.0567918  
H10      H      0.159350000000     0.990290000000     0.528680000000     0.0438581  
H11      H      0.212760000000     0.107030000000     0.433130000000     0.0313128  
H12      H      0.108160000000     0.920540000000     0.430540000000     0.184697   
H13      H      0.091570000000     0.855850000000     0.537700000000     0.0419265  
H14      H      0.894990000000     0.801920000000     0.530800000000     0.033504   
H15      H      0.017430000000     0.861010000000     0.477170000000     0.0423093  
H16      H      0.973370000000     0.784210000000     0.490480000000     0.0420268  
H17      H      0.938280000000     0.800210000000     0.533930000000     0.0548177  
H18      H      0.017190000000     0.784450000000     0.496650000000     0.0405776  
H19      H      0.942360000000     0.845860000000     0.421890000000     0.0597388  
H20      H      0.048160000000     0.853660000000     0.534650000000     0.0590989  
H21      H      0.053380000000     0.792770000000     0.449770000000     0.0569722  
H22      H      0.973810000000     0.860810000000     0.471600000000     0.0437172  
H23      H      0.096960000000     0.795460000000     0.453600000000     0.0314883  
H24      H      0.897280000000     0.865980000000     0.350630000000     0.187763   
H25      H      0.815070000000     0.098790000000     0.424830000000     0.0322003  
H26      H      0.823740000000     0.897640000000     0.545010000000     0.0339246  
H27      H      0.784760000000     0.023550000000     0.454290000000     0.0408851  
H28      H      0.848630000000     0.973470000000     0.520680000000     0.0431797  
H29      H      0.824790000000     0.940660000000     0.549740000000     0.0552022  
H30      H      0.851950000000     0.016900000000     0.523450000000     0.041959   
H31      H      0.799740000000     0.946010000000     0.418150000000     0.0605298  
H32      H      0.809420000000     0.055700000000     0.423620000000     0.057299   
H33      H      0.833240000000     0.051840000000     0.556690000000     0.0571458  
H34      H      0.781350000000     0.980050000000     0.451720000000     0.0431959  
H35      H      0.838990000000     0.094900000000     0.556510000000     0.0337919  
H36      H      0.790980000000     0.902140000000     0.339090000000     0.186415   
H37      H      0.118810000000     0.161320000000     0.427250000000     0.0300669  
H38      H      0.915670000000     0.207070000000     0.443680000000     0.0319098  
H39      H      0.042740000000     0.147540000000     0.465400000000     0.0403011  
H40      H      0.993780000000     0.220880000000     0.483550000000     0.0411606  
H41      H      0.958700000000     0.211400000000     0.439580000000     0.0538825  
H42      H      0.037370000000     0.224240000000     0.479800000000     0.0395238  
H43      H      0.967450000000     0.147830000000     0.516920000000     0.058351   
H44      H      0.075420000000     0.161030000000     0.422480000000     0.0559262  
H45      H      0.072540000000     0.215120000000     0.521830000000     0.05595    
H46      H      0.999340000000     0.144370000000     0.466790000000     0.0428022  
H47      H      0.116050000000     0.215470000000     0.524610000000     0.0312622  
H48      H      0.924590000000     0.113730000000     0.573800000000     0.185294   
H49      H      0.758380000000     0.817530000000     0.577630000000     0.0328641  
H50      H      0.726450000000     0.676760000000     0.858550000000     0.0330418  
H51      H      0.744980000000     0.790180000000     0.714430000000     0.0413812  
H52      H      0.734450000000     0.702060000000     0.717950000000     0.0414045  
H53      H      0.743500000000     0.694800000000     0.794660000000     0.0548234  
H54      H      0.753280000000     0.720800000000     0.655120000000     0.0399492  
H55      H      0.690420000000     0.750480000000     0.799030000000     0.0597927  
H56      H      0.738010000000     0.798430000000     0.637890000000     0.0572113  
H57      H      0.790320000000     0.741550000000     0.635830000000     0.0560023  
H58      H      0.726220000000     0.771490000000     0.777140000000     0.0438661  
H59      H      0.810000000000     0.760970000000     0.575040000000     0.0310348  
H60      H      0.638770000000     0.755840000000     0.863850000000     0.186495   
H61      H      0.759500000000     0.812370000000     0.366730000000     0.0363488  
H62      H      0.690190000000     0.675750000000     0.121170000000     0.033595   
H63      H      0.748980000000     0.787950000000     0.227580000000     0.0421744  
H64      H      0.749540000000     0.699390000000     0.216890000000     0.0416365  
H65      H      0.709320000000     0.693450000000     0.183730000000     0.0547445  
H66      H      0.767220000000     0.718590000000     0.280510000000     0.0400295  
H67      H      0.742340000000     0.746190000000     0.101690000000     0.0597437  
H68      H      0.741510000000     0.792520000000     0.304890000000     0.0577838  
H69      H      0.801590000000     0.743920000000     0.301010000000     0.0568908  
H70      H      0.730700000000     0.768800000000     0.164910000000     0.0441202  
H71      H      0.818940000000     0.764050000000     0.363450000000     0.0311754  
H72      H      0.745110000000     0.749720000000     0.987560000000     0.188095   
H73      H      0.779850000000     0.184830000000     0.587300000000     0.0306027  
H74      H      0.752860000000     0.311650000000     0.889760000000     0.0328856  
H75      H      0.746200000000     0.244090000000     0.667430000000     0.040813   
H76      H      0.791220000000     0.256140000000     0.804620000000     0.0418545  
H77      H      0.773870000000     0.294430000000     0.828860000000     0.0545172  
H78      H      0.811160000000     0.237250000000     0.743170000000     0.0404449  
H79      H      0.711800000000     0.251980000000     0.798550000000     0.0594237  
H80      H      0.761150000000     0.204330000000     0.648540000000     0.0569908  
H81      H      0.825680000000     0.245460000000     0.668840000000     0.0562254  
H82      H      0.726390000000     0.263030000000     0.728480000000     0.0431316  
H83      H      0.843980000000     0.225320000000     0.607470000000     0.0302493  
H84      H      0.657830000000     0.243840000000     0.855020000000     0.191638   
H85      H      0.796730000000     0.231510000000     0.419280000000     0.0306403  
H86      H      0.729310000000     0.258190000000     0.057740000000     0.0339517  
H87      H      0.743810000000     0.242360000000     0.308770000000     0.0407169  
H88      H      0.784590000000     0.246790000000     0.166370000000     0.0421151  
H89      H      0.749650000000     0.239430000000     0.118230000000     0.0550921  
H90      H      0.805460000000     0.228790000000     0.228080000000     0.0403184  
H91      H      0.725630000000     0.295800000000     0.201830000000     0.0596945  
H92      H      0.776920000000     0.249900000000     0.357480000000     0.0563877  
H93      H      0.804720000000     0.194070000000     0.275500000000     0.0563514  
H94      H      0.723080000000     0.260430000000     0.247240000000     0.0433925  
H95      H      0.824740000000     0.176470000000     0.338000000000     0.0327069  
H96      H      0.696760000000     0.350090000000     0.177660000000     0.185068   
H97      H      0.703860000000     0.595250000000     0.028780000000     0.0303601  
H98      H      0.670080000000     0.394880000000     0.923340000000     0.0341188  
H99      H      0.729120000000     0.518870000000     0.985980000000     0.0410648  
H100     H      0.655990000000     0.471620000000     0.953310000000     0.041587   
H101     H      0.671060000000     0.437780000000     0.916920000000     0.0545797  
H102     H      0.654170000000     0.515060000000     0.951180000000     0.0403281  
H103     H      0.717790000000     0.441560000000     0.027880000000     0.0579767  
H104     H      0.708770000000     0.551930000000     0.028530000000     0.0566216  
H105     H      0.670730000000     0.548800000000     0.906710000000     0.0563703  
H106     H      0.731260000000     0.475180000000     0.986980000000     0.0442833  
H107     H      0.666180000000     0.591970000000     0.907950000000     0.0316911  
H108     H      0.713630000000     0.374150000000     0.099060000000     0.194067   
H109     H      0.252380000000     0.704650000000     0.913080000000     0.0327705  
H110     H      0.194780000000     0.767530000000     0.568730000000     0.0323028  
H111     H      0.221180000000     0.759530000000     0.819070000000     0.0421228  
H112     H      0.251260000000     0.748120000000     0.669470000000     0.0420435  
H113     H      0.212950000000     0.746690000000     0.629230000000     0.0543728  
H114     H      0.272120000000     0.728880000000     0.729910000000     0.040906   
H115     H      0.206410000000     0.809970000000     0.706990000000     0.0606379  
H116     H      0.230160000000     0.720710000000     0.851630000000     0.0573677  
H117     H      0.297010000000     0.740610000000     0.791370000000     0.0583986  
H118     H      0.199860000000     0.778050000000     0.758530000000     0.0433749  
H119     H      0.318600000000     0.724040000000     0.852970000000     0.0363585  
H120     H      0.188400000000     0.868010000000     0.680600000000     0.18713    
H121     H      0.175780000000     0.816380000000     0.341950000000     0.0320505  
H122     H      0.281200000000     0.693650000000     0.122560000000     0.0347654  
H123     H      0.228690000000     0.808620000000     0.228560000000     0.0410181  
H124     H      0.277650000000     0.735350000000     0.249690000000     0.0418629  
H125     H      0.264460000000     0.713260000000     0.184900000000     0.0546175  
H126     H      0.258470000000     0.753870000000     0.312050000000     0.0401747  
H127     H      0.286220000000     0.781470000000     0.133750000000     0.0595848  
H128     H      0.196170000000     0.800070000000     0.279290000000     0.0566817  
H129     H      0.259780000000     0.789750000000     0.357240000000     0.0564063  
H130     H      0.247270000000     0.789660000000     0.166000000000     0.0434115  
H131     H      0.238680000000     0.805870000000     0.419410000000     0.0304685  
H132     H      0.323020000000     0.795470000000     0.044720000000     0.189735   
H133     H      0.602190000000     0.706300000000     0.030100000000     0.0338274  
H134     H      0.398160000000     0.667010000000     0.053300000000     0.0323504  
H135     H      0.523850000000     0.724670000000     0.000100000000     0.0418307  
H136     H      0.472450000000     0.652250000000     0.003720000000     0.0420957  
H137     H      0.441360000000     0.664640000000     0.053950000000     0.0545187  
H138     H      0.515770000000     0.647780000000     0.998410000000     0.0399802  
H139     H      0.444860000000     0.724010000000     0.965210000000     0.0611534  
H140     H      0.559180000000     0.711160000000     0.038840000000     0.0572364  
H141     H      0.547460000000     0.654340000000     0.946820000000     0.0567341  
H142     H      0.480560000000     0.729100000000     0.007390000000     0.043688   
H143     H      0.590500000000     0.649650000000     0.939720000000     0.0314301  
H144     H      0.400230000000     0.755590000000     0.910380000000     0.187653   
H145     H      0.189990000000     0.208110000000     0.640210000000     0.031633   
H146     H      0.289050000000     0.335680000000     0.870460000000     0.032686   
H147     H      0.237640000000     0.220380000000     0.760030000000     0.0406884  
H148     H      0.284770000000     0.295090000000     0.742700000000     0.041692   
H149     H      0.270920000000     0.316570000000     0.808400000000     0.0542291  
H150     H      0.267570000000     0.275890000000     0.678820000000     0.0399041  
H151     H      0.293410000000     0.247920000000     0.856770000000     0.0600272  
H152     H      0.206530000000     0.227120000000     0.704390000000     0.0561313  
H153     H      0.272770000000     0.239220000000     0.635900000000     0.05621    
H154     H      0.254310000000     0.239930000000     0.824020000000     0.0428878  
H155     H      0.255570000000     0.220310000000     0.572210000000     0.0302583  
H156     H      0.330160000000     0.232200000000     0.944240000000     0.187538   
H157     H      0.255870000000     0.198570000000     0.395190000000     0.032251   
H158     H      0.277590000000     0.328970000000     0.095310000000     0.033937   
H159     H      0.289890000000     0.259900000000     0.316950000000     0.0407639  
H160     H      0.242540000000     0.273410000000     0.182630000000     0.0421523  
H161     H      0.258480000000     0.311110000000     0.157490000000     0.0544584  
H162     H      0.223640000000     0.254140000000     0.244880000000     0.0404668  
H163     H      0.322620000000     0.271000000000     0.184740000000     0.0593085  
H164     H      0.274280000000     0.219170000000     0.334460000000     0.057206   
H165     H      0.211090000000     0.263160000000     0.321300000000     0.0558567  
H166     H      0.308680000000     0.279590000000     0.255260000000     0.0428421  
H167     H      0.193150000000     0.242110000000     0.382310000000     0.0295949  
H168     H      0.375190000000     0.264080000000     0.123320000000     0.186139   
H169     H      0.413170000000     0.318980000000     0.926570000000     0.032181   
H170     H      0.613320000000     0.323740000000     0.056750000000     0.0384282  
H171     H      0.487300000000     0.288820000000     0.960470000000     0.0418314  
H172     H      0.539200000000     0.351540000000     0.024730000000     0.0423968  
H173     H      0.570120000000     0.326430000000     0.058670000000     0.0559313  
H174     H      0.495850000000     0.357070000000     0.023920000000     0.040388   
H175     H      0.566340000000     0.299250000000     0.928680000000     0.0604909  
H176     H      0.456430000000     0.313710000000     0.926250000000     0.0573099  
H177     H      0.459710000000     0.340810000000     0.056910000000     0.0576321  
H178     H      0.530680000000     0.283260000000     0.961370000000     0.0435691  
H179     H      0.416540000000     0.346180000000     0.055800000000     0.0356213  
H180     H      0.610940000000     0.285580000000     0.853960000000     0.191244   
H181     H      0.342880000000     0.414440000000     0.918730000000     0.0304788  
H182     H      0.309100000000     0.611080000000     0.045960000000     0.0344229  
H183     H      0.357400000000     0.493980000000     0.940640000000     0.0404169  
H184     H      0.289380000000     0.533470000000     0.014860000000     0.0417075  
H185     H      0.310520000000     0.568010000000     0.045030000000     0.0542228  
H186     H      0.292390000000     0.489980000000     0.016100000000     0.0400922  
H187     H      0.328240000000     0.569640000000     0.909680000000     0.0587456  
H188     H      0.338790000000     0.457660000000     0.914080000000     0.0562276  
H189     H      0.316860000000     0.458980000000     0.048050000000     0.0560443  
H190     H      0.354250000000     0.537510000000     0.939150000000     0.0443959  
H191     H      0.320610000000     0.415800000000     0.051160000000     0.032428   
H192     H      0.308650000000     0.641160000000     0.858960000000     0.183703   
In1      In     0.339070000000     0.339670000000     0.993030000000     2.42625    
In2      In     0.323890000000     0.688240000000     0.992450000000     2.43328    
In3      In     0.687680000000     0.320230000000     0.986090000000     2.42732    
In4      In     0.671700000000     0.668410000000     0.972630000000     2.41839    
In5      In     0.843070000000     0.171150000000     0.488450000000     2.40806    
In6      In     0.820070000000     0.824090000000     0.472820000000     2.42849    
In7      In     0.169620000000     0.835720000000     0.491440000000     2.42424    
In8      In     0.192710000000     0.182650000000     0.493290000000     2.40591    
N1       N      0.180200000000     0.907960000000     0.489270000000    -0.178979   
N2       N      0.201610000000     0.110290000000     0.499310000000    -0.196338   
N3       N      0.893280000000     0.824850000000     0.474790000000    -0.17927    
N4       N      0.097330000000     0.825980000000     0.495490000000    -0.192891   
N5       N      0.811310000000     0.896520000000     0.478990000000    -0.17817    
N6       N      0.827620000000     0.099860000000     0.490580000000    -0.19376    
N7       N      0.916340000000     0.174830000000     0.481880000000    -0.180783   
N8       N      0.120480000000     0.188160000000     0.476670000000    -0.195293   
N9       N      0.698650000000     0.703030000000     0.866650000000    -0.180338   
N10      N      0.785660000000     0.790660000000     0.572180000000    -0.194756   
N11      N      0.704740000000     0.700670000000     0.075020000000    -0.178552   
N12      N      0.790510000000     0.789670000000     0.369380000000    -0.194893   
N13      N      0.720170000000     0.292100000000     0.879560000000    -0.178477   
N14      N      0.813190000000     0.203750000000     0.592930000000    -0.195919   
N15      N      0.715600000000     0.287880000000     0.094150000000    -0.179147   
N16      N      0.812060000000     0.202650000000     0.383070000000    -0.193986   
N17      N      0.693470000000     0.392940000000     0.978740000000    -0.179187   
N18      N      0.684480000000     0.596630000000     0.968650000000    -0.195552   
N19      N      0.190220000000     0.800890000000     0.602110000000    -0.179729   
N20      N      0.287030000000     0.713300000000     0.887460000000    -0.193934   
N21      N      0.293480000000     0.725870000000     0.091440000000    -0.178764   
N22      N      0.205720000000     0.812130000000     0.385160000000    -0.195564   
N23      N      0.396160000000     0.696510000000     0.008530000000    -0.17952    
N24      N      0.599380000000     0.677600000000     0.984430000000    -0.195193   
N25      N      0.302050000000     0.303170000000     0.899670000000    -0.179892   
N26      N      0.221570000000     0.212910000000     0.601670000000    -0.195155   
N27      N      0.311280000000     0.310800000000     0.103780000000    -0.178509   
N28      N      0.223220000000     0.218860000000     0.393020000000    -0.194991   
N29      N      0.615130000000     0.310380000000     0.991640000000    -0.177908   
N30      N      0.411800000000     0.332920000000     0.991170000000    -0.194847   
N31      N      0.318370000000     0.615750000000     0.978890000000    -0.178975   
N32      N      0.332040000000     0.412060000000     0.985220000000    -0.194739   
O1       O      0.309830000000     0.336370000000     0.044480000000    -0.493906   
O2       O      0.340280000000     0.313990000000     0.050320000000    -0.483181   
O3       O      0.311370000000     0.337430000000     0.938240000000    -0.502749   
O4       O      0.341320000000     0.375160000000     0.956120000000    -0.500944   
O5       O      0.376140000000     0.343430000000     0.023680000000    -0.496928   
O6       O      0.329750000000     0.375990000000     0.021660000000    -0.496243   
O7       O      0.329890000000     0.305760000000     0.955490000000    -0.487537   
O8       O      0.374280000000     0.329980000000     0.959490000000    -0.49928    
O9       O      0.289130000000     0.695570000000     0.955140000000    -0.502683   
O10      O      0.321960000000     0.705350000000     0.925270000000    -0.485148   
O11      O      0.300480000000     0.691210000000     0.052650000000    -0.493492   
O12      O      0.313440000000     0.651080000000     0.016780000000    -0.493115   
O13      O      0.359820000000     0.705140000000     0.975220000000    -0.477671   
O14      O      0.328670000000     0.653680000000     0.954250000000    -0.494664   
O15      O      0.317860000000     0.722630000000     0.030810000000    -0.487855   
O16      O      0.359280000000     0.680680000000     0.027690000000    -0.508352   
O17      O      0.704840000000     0.288340000000     0.021500000000    -0.500663   
O18      O      0.698490000000     0.319870000000     0.057300000000    -0.477993   
O19      O      0.690810000000     0.292860000000     0.932430000000    -0.476055   
O20      O      0.651380000000     0.312020000000     0.955380000000    -0.469001   
O21      O      0.706630000000     0.355480000000     0.001370000000    -0.480044   
O22      O      0.652240000000     0.317350000000     0.023150000000    -0.490862   
O23      O      0.718180000000     0.319080000000     0.936410000000    -0.500494   
O24      O      0.676290000000     0.356760000000     0.960030000000    -0.504562   
O25      O      0.699030000000     0.693860000000     0.001630000000    -0.486738   
O26      O      0.678160000000     0.673270000000     0.045330000000    -0.487572   
O27      O      0.699920000000     0.673950000000     0.920230000000    -0.500822   
O28      O      0.669890000000     0.631950000000     0.940070000000    -0.499677   
O29      O      0.638700000000     0.687400000000     0.000250000000    -0.492183   
O30      O      0.687350000000     0.633750000000     0.001170000000    -0.499462   
O31      O      0.669380000000     0.696420000000     0.918730000000    -0.488845   
O32      O      0.632800000000     0.658960000000     0.956290000000    -0.499552   
O33      O      0.820790000000     0.200500000000     0.456220000000    -0.501994   
O34      O      0.835230000000     0.173370000000     0.415820000000    -0.483749   
O35      O      0.812480000000     0.177190000000     0.535820000000    -0.504101   
O36      O      0.840340000000     0.134920000000     0.522610000000    -0.488814   
O37      O      0.878120000000     0.187710000000     0.463230000000    -0.502928   
O38      O      0.828780000000     0.136900000000     0.457110000000    -0.489638   
O39      O      0.844330000000     0.197520000000     0.544970000000    -0.50389    
O40      O      0.880670000000     0.159570000000     0.508690000000    -0.491178   
O41      O      0.820360000000     0.795080000000     0.420610000000    -0.503764   
O42      O      0.790640000000     0.818760000000     0.422250000000    -0.495105   
O43      O      0.815800000000     0.793340000000     0.521200000000    -0.498695   
O44      O      0.856270000000     0.816620000000     0.505150000000    -0.49695    
O45      O      0.812240000000     0.860410000000     0.442090000000    -0.477206   
O46      O      0.856390000000     0.830930000000     0.441500000000    -0.489023   
O47      O      0.790130000000     0.821410000000     0.522710000000    -0.498997   
O48      O      0.818650000000     0.859350000000     0.509780000000    -0.498489   
O49      O      0.177780000000     0.801710000000     0.530380000000    -0.503846   
O50      O      0.181380000000     0.835000000000     0.562170000000    -0.483398   
O51      O      0.172040000000     0.826860000000     0.419320000000    -0.500181   
O52      O      0.135390000000     0.815410000000     0.472870000000    -0.492098   
O53      O      0.191980000000     0.869190000000     0.505650000000    -0.490076   
O54      O      0.132390000000     0.844620000000     0.516390000000    -0.486568   
O55      O      0.203350000000     0.822000000000     0.457660000000    -0.506507   
O56      O      0.159550000000     0.873470000000     0.470630000000    -0.488335   
O57      O      0.192520000000     0.212160000000     0.441740000000    -0.50373    
O58      O      0.223140000000     0.189580000000     0.445970000000    -0.491922   
O59      O      0.190740000000     0.194720000000     0.563940000000    -0.490432   
O60      O      0.156500000000     0.200220000000     0.506830000000    -0.491377   
O61      O      0.203050000000     0.146660000000     0.463710000000    -0.496004   
O62      O      0.157530000000     0.172040000000     0.460810000000    -0.505906   
O63      O      0.223520000000     0.200150000000     0.530670000000    -0.503222   
O64      O      0.193420000000     0.147000000000     0.530070000000    -0.50794    
O65      O      0.124730000000     0.924770000000     0.435940000000    -0.331267   
O66      O      0.126430000000     0.903590000000     0.497190000000    -0.216604   
O67      O      0.903550000000     0.854660000000     0.371600000000    -0.331268   
O68      O      0.881760000000     0.869710000000     0.425360000000    -0.22312    
O69      O      0.798440000000     0.908240000000     0.365170000000    -0.32909    
O70      O      0.776410000000     0.885010000000     0.408250000000    -0.21803    
O71      O      0.929800000000     0.128590000000     0.560680000000    -0.332154   
O72      O      0.908910000000     0.122220000000     0.500130000000    -0.225803   
O73      O      0.651060000000     0.746300000000     0.850160000000    -0.330543   
O74      O      0.672590000000     0.743220000000     0.910900000000    -0.209642   
O75      O      0.743200000000     0.740600000000     0.014040000000    -0.329819   
O76      O      0.703340000000     0.740560000000     0.008900000000    -0.211375   
O77      O      0.674740000000     0.247700000000     0.853930000000    -0.328751   
O78      O      0.668010000000     0.286910000000     0.857820000000    -0.211838   
O79      O      0.706770000000     0.336630000000     0.169930000000    -0.333074   
O80      O      0.677370000000     0.318590000000     0.133520000000    -0.216695   
O81      O      0.706350000000     0.381070000000     0.073400000000    -0.316821   
O82      O      0.739570000000     0.400790000000     0.055230000000    -0.232218   
O83      O      0.194940000000     0.852450000000     0.673680000000    -0.330749   
O84      O      0.161750000000     0.840990000000     0.639150000000    -0.221538   
O85      O      0.317660000000     0.784690000000     0.067300000000    -0.329714   
O86      O      0.294960000000     0.763560000000     0.021850000000    -0.222174   
O87      O      0.406730000000     0.741610000000     0.924850000000    -0.329854   
O88      O      0.383170000000     0.746110000000     0.982350000000    -0.215559   
O89      O      0.324590000000     0.243110000000     0.921950000000    -0.331691   
O90      O      0.305290000000     0.266100000000     0.969170000000    -0.223717   
O91      O      0.358260000000     0.267620000000     0.125660000000    -0.329553   
O92      O      0.364210000000     0.307010000000     0.122910000000    -0.219135   
O93      O      0.604490000000     0.293980000000     0.878690000000    -0.32893    
O94      O      0.627740000000     0.274210000000     0.925460000000    -0.212579   
O95      O      0.308090000000     0.632970000000     0.886640000000    -0.32045    
O96      O      0.340450000000     0.611040000000     0.872320000000    -0.234687   


