data_structure

_audit_creation_method RASPA-1.0
_audit_creation_date 2023-5-22
_audit_author_name 'Poobodin Mano'

_cell_length_a    47.8255
_cell_length_b    45.1084
_cell_length_c    42.3578
_cell_angle_alpha 90
_cell_angle_beta  90
_cell_angle_gamma 90
_cell_volume      91379.8

_symmetry_cell_setting          triclinic
_symmetry_space_group_name_Hall 'P 1'
_symmetry_space_group_name_H-M  'P 1'
_symmetry_Int_Tables_number     1

_symmetry_equiv_pos_as_xyz 'x,y,z'

loop_
_atom_site_label
_atom_site_type_symbol
_atom_site_fract_x
_atom_site_fract_y
_atom_site_fract_z
_atom_site_charge
C1       C      0.885280000000     0.401860000000     0.939060000000     0.421839   
C2       C      0.811200000000     0.405240000000     0.873260000000     0.424085   
C3       C      0.882170000000     0.336130000000     0.870190000000     0.422814   
C4       C      0.810700000000     0.338480000000     0.939990000000     0.429012   
C5       C      0.058290000000     0.587860000000     0.123920000000     0.413508   
C6       C      0.126640000000     0.590560000000     0.192320000000     0.413138   
C7       C      0.123720000000     0.660460000000     0.121580000000     0.422931   
C8       C      0.057850000000     0.661220000000     0.191530000000     0.417114   
C9       C      0.312610000000     0.838590000000     0.947760000000     0.413044   
C10      C      0.386750000000     0.839910000000     0.879790000000     0.414418   
C11      C      0.312040000000     0.903030000000     0.879650000000     0.424218   
C12      C      0.386090000000     0.903280000000     0.949100000000     0.422827   
C13      C      0.629050000000     0.163790000000     0.126750000000     0.414252   
C14      C      0.561070000000     0.091950000000     0.128720000000     0.414446   
C15      C      0.628670000000     0.094190000000     0.197230000000     0.414237   
C16      C      0.560370000000     0.165150000000     0.194140000000     0.412468   
C17      C      0.313670000000     0.419770000000     0.376560000000     0.426494   
C18      C      0.378730000000     0.346020000000     0.374160000000     0.426531   
C19      C      0.381830000000     0.416630000000     0.444400000000     0.413839   
C20      C      0.312700000000     0.346940000000     0.444410000000     0.414519   
C21      C      0.636580000000     0.593880000000     0.694440000000     0.421873   
C22      C      0.567770000000     0.664320000000     0.693000000000     0.425655   
C23      C      0.639530000000     0.658890000000     0.625180000000     0.429965   
C24      C      0.565600000000     0.593450000000     0.626480000000     0.427335   
C25      C      0.880260000000     0.845130000000     0.373660000000     0.425975   
C26      C      0.814170000000     0.921240000000     0.380840000000     0.426872   
C27      C      0.817310000000     0.841610000000     0.442400000000     0.410588   
C28      C      0.880760000000     0.919430000000     0.442660000000     0.410273   
C29      C      0.068300000000     0.156560000000     0.694290000000     0.427163   
C30      C      0.138930000000     0.088340000000     0.693820000000     0.415358   
C31      C      0.068880000000     0.092890000000     0.622360000000     0.424914   
C32      C      0.142240000000     0.158260000000     0.629270000000     0.424162   
C33      C      0.031660000000     0.063650000000     0.552700000000    -0.118959   
C34      C      0.895570000000     0.939670000000     0.491660000000     0.0790726  
C35      C      0.917330000000     0.955030000000     0.444100000000     0.0789206  
C36      C      0.913380000000     0.957850000000     0.509230000000    -0.0917685  
C37      C      0.944490000000     0.009230000000     0.539260000000    -0.0336892  
C38      C      0.963300000000     0.026170000000     0.556960000000    -0.0303224  
C39      C      0.953530000000     0.993710000000     0.512320000000    -0.00350094 
C40      C      0.935390000000     0.973550000000     0.460910000000    -0.0921636  
C41      C      0.991530000000     0.028120000000     0.548020000000    -0.00894982 
C42      C      0.011780000000     0.043330000000     0.600070000000    -0.100579   
C43      C      0.000530000000     0.012870000000     0.520940000000    -0.0302407  
C44      C      0.031450000000     0.059030000000     0.617710000000     0.0838813  
C45      C      0.051450000000     0.079020000000     0.570890000000     0.17241    
C46      C      0.981780000000     0.995810000000     0.503350000000    -0.0332745  
C47      C      0.933750000000     0.974970000000     0.493920000000     0.052895   
C48      C      0.011710000000     0.045530000000     0.567190000000     0.067636   
C49      C      0.698510000000     0.707170000000     0.602890000000    -0.118646   
C50      C      0.778430000000     0.808950000000     0.445510000000     0.080204   
C51      C      0.807200000000     0.816560000000     0.490370000000     0.0793361  
C52      C      0.761170000000     0.789910000000     0.462740000000    -0.0914368  
C53      C      0.719050000000     0.765560000000     0.509480000000    -0.0329288  
C54      C      0.701530000000     0.747610000000     0.527700000000    -0.0295194  
C55      C      0.748230000000     0.764750000000     0.513680000000    -0.00310811 
C56      C      0.790310000000     0.797770000000     0.508340000000    -0.0916119  
C57      C      0.712740000000     0.728570000000     0.550680000000    -0.00854171 
C58      C      0.671930000000     0.694230000000     0.556770000000    -0.100178   
C59      C      0.741870000000     0.727620000000     0.554830000000    -0.0299321  
C60      C      0.654610000000     0.676740000000     0.575600000000     0.0865854  
C61      C      0.680980000000     0.689220000000     0.621350000000     0.17583    
C62      C      0.759420000000     0.745430000000     0.536490000000    -0.0330512  
C63      C      0.766860000000     0.784250000000     0.494650000000     0.0534415  
C64      C      0.694070000000     0.709850000000     0.570380000000     0.0690604  
C65      C      0.184530000000     0.222670000000     0.605150000000    -0.118568   
C66      C      0.288780000000     0.301200000000     0.450960000000     0.0781605  
C67      C      0.286230000000     0.337950000000     0.490890000000     0.0789141  
C68      C      0.272030000000     0.282180000000     0.468810000000    -0.0921815  
C69      C      0.250860000000     0.240800000000     0.520150000000    -0.0334795  
C70      C      0.234480000000     0.222010000000     0.538760000000    -0.0300915  
C71      C      0.244550000000     0.271180000000     0.517930000000    -0.00372526 
C72      C      0.269380000000     0.319530000000     0.509340000000    -0.0928553  
C73      C      0.211400000000     0.233130000000     0.555550000000    -0.00830916 
C74      C      0.187350000000     0.184590000000     0.565630000000    -0.0987457  
C75      C      0.205020000000     0.263490000000     0.553200000000    -0.0300419  
C76      C      0.170790000000     0.166410000000     0.584600000000     0.0851174  
C77      C      0.168280000000     0.203830000000     0.624090000000     0.173561   
C78      C      0.221410000000     0.282280000000     0.534620000000    -0.0329066  
C79      C      0.262150000000     0.291230000000     0.498430000000     0.0530437  
C80      C      0.194100000000     0.213240000000     0.575600000000     0.067948   
C81      C      0.524310000000     0.529320000000     0.599260000000    -0.118984   
C82      C      0.405570000000     0.462280000000     0.452410000000     0.0777901  
C83      C      0.411600000000     0.422810000000     0.488760000000     0.0790484  
C84      C      0.423600000000     0.480200000000     0.470000000000    -0.0916925  
C85      C      0.474440000000     0.506970000000     0.502190000000    -0.0336633  
C86      C      0.492520000000     0.524410000000     0.520310000000    -0.0302554  
C87      C      0.455060000000     0.487950000000     0.516820000000    -0.00367774 
C88      C      0.429770000000     0.440070000000     0.506850000000    -0.0928091  
C89      C      0.491700000000     0.523130000000     0.553450000000    -0.00889544 
C90      C      0.515970000000     0.571090000000     0.565360000000    -0.100083   
C91      C      0.472250000000     0.504240000000     0.568070000000    -0.0301573  
C92      C      0.533840000000     0.588020000000     0.584140000000     0.0839969  
C93      C      0.541940000000     0.546840000000     0.618040000000     0.172631   
C94      C      0.454130000000     0.486900000000     0.549980000000    -0.0331874  
C95      C      0.435940000000     0.469190000000     0.497630000000     0.052768   
C96      C      0.511070000000     0.541370000000     0.572770000000     0.0677358  
C97      C      0.753660000000     0.968530000000     0.361380000000    -0.1181     
C98      C      0.670730000000     0.066800000000     0.203220000000     0.077484   
C99      C      0.638840000000     0.070400000000     0.245940000000     0.0781707  
C100     C      0.688830000000     0.049640000000     0.221510000000    -0.0933591  
C101     C      0.714480000000     0.999830000000     0.260180000000    -0.0335921  
C102     C      0.732950000000     0.983280000000     0.278660000000    -0.0304387  
C103     C      0.701090000000     0.024950000000     0.272690000000    -0.00428047 
C104     C      0.656540000000     0.053430000000     0.264970000000    -0.0932009  
C105     C      0.738590000000     0.991520000000     0.310050000000    -0.00847093 
C106     C      0.783440000000     0.963410000000     0.316050000000    -0.0992632  
C107     C      0.725030000000     0.016550000000     0.322610000000    -0.0303358  
C108     C      0.801920000000     0.946680000000     0.334180000000     0.0851968  
C109     C      0.772860000000     0.952110000000     0.379390000000     0.17256    
C110     C      0.706450000000     0.033040000000     0.304150000000    -0.0333421  
C111     C      0.681880000000     0.042840000000     0.252820000000     0.0527804  
C112     C      0.758740000000     0.974180000000     0.329400000000     0.0675877  
C113     C      0.403940000000     0.298410000000     0.309320000000    -0.119134   
C114     C      0.551480000000     0.195770000000     0.238630000000     0.0783753  
C115     C      0.516440000000     0.189130000000     0.199660000000     0.0773364  
C116     C      0.533750000000     0.214130000000     0.256050000000    -0.0934487  
C117     C      0.497040000000     0.265110000000     0.278160000000    -0.0338918  
C118     C      0.478920000000     0.282790000000     0.295910000000    -0.0303873  
C119     C      0.487340000000     0.239060000000     0.263610000000    -0.00416476 
C120     C      0.498120000000     0.207310000000     0.216510000000    -0.0931467  
C121     C      0.450680000000     0.274790000000     0.299570000000    -0.00891086 
C122     C      0.440440000000     0.305390000000     0.347570000000    -0.100686   
C123     C      0.440970000000     0.248790000000     0.284910000000    -0.0302214  
C124     C      0.422130000000     0.322380000000     0.365680000000     0.084048   
C125     C      0.385720000000     0.315150000000     0.328200000000     0.174967   
C126     C      0.459080000000     0.231150000000     0.267110000000    -0.0333862  
C127     C      0.506670000000     0.220020000000     0.245110000000     0.0527194  
C128     C      0.431510000000     0.293300000000     0.318930000000     0.0681703  
C129     C      0.264940000000     0.927100000000     0.815660000000    -0.118772   
C130     C      0.168520000000     0.081010000000     0.738170000000     0.0810446  
C131     C      0.160530000000     0.041580000000     0.702270000000     0.0797905  
C132     C      0.185670000000     0.062880000000     0.756580000000    -0.0907991  
C133     C      0.233010000000     0.024350000000     0.781050000000    -0.0335683  
C134     C      0.249710000000     0.005830000000     0.799610000000    -0.0299945  
C135     C      0.208250000000     0.013610000000     0.767250000000    -0.00312385 
C136     C      0.177570000000     0.022830000000     0.720110000000    -0.0919405  
C137     C      0.242080000000     0.976120000000     0.804770000000    -0.00884321 
C138     C      0.271370000000     0.966760000000     0.852810000000    -0.100546   
C139     C      0.217360000000     0.965370000000     0.790940000000    -0.0298194  
C140     C      0.288010000000     0.948070000000     0.871110000000     0.0834299  
C141     C      0.281430000000     0.908540000000     0.834670000000     0.172171   
C142     C      0.200640000000     0.983890000000     0.772420000000    -0.0329247  
C143     C      0.190340000000     0.033360000000     0.747710000000     0.0535458  
C144     C      0.259820000000     0.956460000000     0.824570000000     0.0675627  
C145     C      0.528730000000     0.729960000000     0.720600000000    -0.118383   
C146     C      0.413170000000     0.795970000000     0.871670000000     0.0806159  
C147     C      0.416230000000     0.835470000000     0.834910000000     0.0807184  
C148     C      0.431740000000     0.779050000000     0.853680000000    -0.0914767  
C149     C      0.482520000000     0.754340000000     0.819780000000    -0.0333206  
C150     C      0.500270000000     0.737040000000     0.801130000000    -0.0298322  
C151     C      0.462160000000     0.772610000000     0.805780000000    -0.00304526 
C152     C      0.434920000000     0.819220000000     0.816410000000    -0.0916242  
C153     C      0.498180000000     0.737710000000     0.768040000000    -0.00849826 
C154     C      0.521520000000     0.689270000000     0.756260000000    -0.0998648  
C155     C      0.478010000000     0.756140000000     0.754010000000    -0.0296078  
C156     C      0.538250000000     0.671570000000     0.737000000000     0.084903   
C157     C      0.545270000000     0.711650000000     0.701360000000     0.173739   
C158     C      0.460180000000     0.773340000000     0.772650000000    -0.0327904  
C159     C      0.442810000000     0.790550000000     0.825590000000     0.0537422  
C160     C      0.516610000000     0.718830000000     0.748220000000     0.0682556  
C161     C      0.432230000000     0.928300000000     0.013640000000    -0.118379   
C162     C      0.533120000000     0.082280000000     0.083550000000     0.0785575  
C163     C      0.537600000000     0.045770000000     0.123520000000     0.077445   
C164     C      0.515640000000     0.063650000000     0.066130000000    -0.0932415  
C165     C      0.466610000000     0.026190000000     0.044050000000    -0.0339049  
C166     C      0.449530000000     0.007360000000     0.026330000000    -0.0307194  
C167     C      0.490620000000     0.015220000000     0.059210000000    -0.00423748 
C168     C      0.520270000000     0.026510000000     0.106650000000    -0.093037   
C169     C      0.456090000000     0.977110000000     0.023270000000    -0.00887558 
C170     C      0.427370000000     0.966900000000     0.974980000000    -0.100635   
C171     C      0.480020000000     0.966100000000     0.038600000000    -0.0303189  
C172     C      0.410630000000     0.948090000000     0.956980000000     0.0833273  
C173     C      0.415740000000     0.909530000000     0.994850000000     0.171531   
C174     C      0.497060000000     0.984930000000     0.056400000000    -0.0333914  
C175     C      0.509030000000     0.035370000000     0.077590000000     0.0526788  
C176     C      0.438200000000     0.957230000000     0.003830000000     0.0672217  
C177     C      0.906340000000     0.800160000000     0.307100000000    -0.11907    
C178     C      0.048590000000     0.688310000000     0.238470000000     0.0783051  
C179     C      0.015260000000     0.687820000000     0.197020000000     0.0778648  
C180     C      0.031100000000     0.706180000000     0.256770000000    -0.0934973  
C181     C      0.982410000000     0.728650000000     0.296430000000    -0.0343089  
C182     C      0.964620000000     0.746550000000     0.314400000000    -0.030791   
C183     C      0.986210000000     0.734130000000     0.264040000000    -0.00433861 
C184     C      0.997300000000     0.705810000000     0.214610000000    -0.0931883  
C185     C      0.950290000000     0.770400000000     0.300410000000    -0.0091807  
C186     C      0.939060000000     0.798350000000     0.350060000000    -0.100657   
C187     C      0.954170000000     0.775880000000     0.268010000000    -0.0303768  
C188     C      0.921580000000     0.817030000000     0.367350000000     0.0826001  
C189     C      0.889330000000     0.819390000000     0.324670000000     0.171905   
C190     C      0.971860000000     0.757930000000     0.250040000000    -0.0335673  
C191     C      0.005090000000     0.715140000000     0.244920000000     0.0525935  
C192     C      0.931560000000     0.789660000000     0.319540000000     0.0670071  
C193     C      0.168590000000     0.687780000000     0.057050000000    -0.119214   
C194     C      0.284410000000     0.831730000000     0.993400000000     0.0796778  
C195     C      0.284720000000     0.795320000000     0.953010000000     0.0806042  
C196     C      0.265350000000     0.814970000000     0.010930000000    -0.091068   
C197     C      0.238000000000     0.766420000000     0.050270000000    -0.0338248  
C198     C      0.219160000000     0.748840000000     0.067220000000    -0.029911   
C199     C      0.235350000000     0.769630000000     0.017390000000    -0.00296058 
C200     C      0.265650000000     0.778050000000     0.969870000000    -0.091326   
C201     C      0.197220000000     0.734090000000     0.051660000000    -0.00905809 
C202     C      0.167110000000     0.723660000000     0.098910000000    -0.100528   
C203     C      0.194410000000     0.737580000000     0.018830000000    -0.029702   
C204     C      0.148630000000     0.705330000000     0.115300000000     0.0830345  
C205     C      0.149630000000     0.669920000000     0.073700000000     0.173387   
C206     C      0.213240000000     0.755120000000     0.001900000000    -0.0332506  
C207     C      0.255690000000     0.787790000000     0.999200000000     0.0530901  
C208     C      0.177500000000     0.714890000000     0.069520000000     0.067712   
C209     C      0.286740000000     0.468390000000     0.313550000000    -0.119078   
C210     C      0.135400000000     0.560490000000     0.237280000000     0.0781713  
C211     C      0.171700000000     0.569800000000     0.200460000000     0.0775403  
C212     C      0.153460000000     0.543440000000     0.255760000000    -0.0930715  
C213     C      0.200570000000     0.523990000000     0.299110000000    -0.0339025  
C214     C      0.219220000000     0.507530000000     0.317490000000    -0.0305652  
C215     C      0.200970000000     0.521760000000     0.266000000000    -0.00394003 
C216     C      0.190330000000     0.552900000000     0.218360000000    -0.0923492  
C217     C      0.238720000000     0.488470000000     0.303190000000    -0.00886009 
C218     C      0.250230000000     0.457780000000     0.350820000000    -0.100435   
C219     C      0.239070000000     0.486160000000     0.270100000000    -0.0300748  
C220     C      0.269280000000     0.441490000000     0.368710000000     0.0842279  
C221     C      0.305690000000     0.452350000000     0.332220000000     0.175304   
C222     C      0.220400000000     0.502590000000     0.251720000000    -0.0330668  
C223     C      0.181330000000     0.539520000000     0.246440000000     0.0526811  
C224     C      0.258760000000     0.471180000000     0.322690000000     0.0682142  
C225     C      0.027860000000     0.186980000000     0.761010000000    -0.118993   
C226     C      0.902010000000     0.322830000000     0.820700000000     0.0828926  
C227     C      0.915200000000     0.297000000000     0.867130000000     0.0831163  
C228     C      0.920000000000     0.305270000000     0.802610000000    -0.0912176  
C229     C      0.947960000000     0.253540000000     0.768650000000    -0.0329319  
C230     C      0.966290000000     0.235570000000     0.751460000000    -0.029521   
C231     C      0.955600000000     0.264440000000     0.798530000000    -0.00288433 
C232     C      0.933370000000     0.279090000000     0.849810000000    -0.0920002  
C233     C      0.992660000000     0.228090000000     0.763790000000    -0.00832557 
C234     C      0.015950000000     0.212830000000     0.713290000000    -0.0996758  
C235     C      0.000370000000     0.239210000000     0.793540000000    -0.0291994  
C236     C      0.035040000000     0.195210000000     0.696920000000     0.0863584  
C237     C      0.047250000000     0.169820000000     0.744180000000     0.174931   
C238     C      0.982070000000     0.257150000000     0.810690000000    -0.0324403  
C239     C      0.936040000000     0.283140000000     0.817160000000     0.0550252  
C240     C      0.012190000000     0.208880000000     0.745720000000     0.068973   
C241     C      0.765470000000     0.277590000000     0.967360000000    -0.119393   
C242     C      0.654510000000     0.208620000000     0.120240000000     0.0769169  
C243     C      0.656490000000     0.171400000000     0.080760000000     0.0784695  
C244     C      0.672650000000     0.226560000000     0.102830000000    -0.0930575  
C245     C      0.698270000000     0.266040000000     0.052180000000    -0.0336373  
C246     C      0.716180000000     0.283350000000     0.033720000000    -0.0302721  
C247     C      0.702500000000     0.235290000000     0.054900000000    -0.00413772 
C248     C      0.674660000000     0.188740000000     0.062760000000    -0.0931367  
C249     C      0.738690000000     0.270300000000     0.017540000000    -0.00868917 
C250     C      0.765900000000     0.316660000000     0.005910000000    -0.100097   
C251     C      0.743160000000     0.239640000000     0.020650000000    -0.0304655  
C252     C      0.783220000000     0.333150000000     0.986040000000     0.0853337  
C253     C      0.782420000000     0.294780000000     0.947500000000     0.176534   
C254     C      0.725290000000     0.222350000000     0.039110000000    -0.033207   
C255     C      0.683050000000     0.216660000000     0.073750000000     0.0526946  
C256     C      0.757100000000     0.288370000000     0.996830000000     0.0682794  
C257     C      0.752760000000     0.430670000000     0.823400000000    -0.11904    
C258     C      0.674540000000     0.560080000000     0.697620000000     0.0853299  
C259     C      0.650450000000     0.574400000000     0.744140000000     0.0837705  
C260     C      0.692160000000     0.541680000000     0.715140000000    -0.0920371  
C261     C      0.735780000000     0.519750000000     0.762840000000    -0.033051   
C262     C      0.752790000000     0.500910000000     0.780660000000    -0.0296151  
C263     C      0.706600000000     0.519290000000     0.766680000000    -0.00337691 
C264     C      0.667420000000     0.555870000000     0.762320000000    -0.0921182  
C265     C      0.740890000000     0.480930000000     0.802280000000    -0.00891341 
C266     C      0.781990000000     0.471970000000     0.837390000000    -0.100112   
C267     C      0.711710000000     0.480340000000     0.805960000000    -0.0295118  
C268     C      0.798520000000     0.452930000000     0.855380000000     0.085006   
C269     C      0.769660000000     0.411890000000     0.841690000000     0.173893   
C270     C      0.694730000000     0.499490000000     0.788490000000    -0.0326866  
C271     C      0.688550000000     0.539260000000     0.747830000000     0.0557916  
C272     C      0.758900000000     0.460890000000     0.821080000000     0.0686303  
C273     C      0.937420000000     0.458230000000     0.961570000000    -0.118625   
C274     C      0.030040000000     0.544630000000     0.120340000000     0.0778193  
C275     C      0.037000000000     0.574910000000     0.075230000000     0.07967    
C276     C      0.013180000000     0.525350000000     0.102870000000    -0.0927641  
C277     C      0.965030000000     0.500390000000     0.063070000000    -0.0341648  
C278     C      0.948190000000     0.481940000000     0.044560000000    -0.0302725  
C279     C      0.990900000000     0.510500000000     0.051650000000    -0.00361763 
C280     C      0.020550000000     0.555930000000     0.057000000000    -0.0916098  
C281     C      0.956980000000     0.472970000000     0.014320000000    -0.00871765 
C282     C      0.922920000000     0.431000000000     0.007450000000    -0.0997097  
C283     C      0.983160000000     0.482700000000     0.003230000000    -0.0294908  
C284     C      0.905780000000     0.413610000000     0.988280000000     0.0830156  
C285     C      0.920600000000     0.439990000000     0.942640000000     0.172745   
C286     C      0.999830000000     0.501370000000     0.021600000000    -0.0335133  
C287     C      0.008410000000     0.530830000000     0.070780000000     0.0530097  
C288     C      0.938810000000     0.453880000000     0.994250000000     0.0670257  
H1       H      0.919390000000     0.954430000000     0.418610000000     0.0331397  
H2       H      0.030490000000     0.056720000000     0.643180000000     0.0328068  
H3       H      0.989600000000     0.983750000000     0.483090000000     0.0426249  
H4       H      0.955680000000     0.037970000000     0.577500000000     0.0421161  
H5       H      0.996950000000     0.029200000000     0.612190000000     0.060373   
H6       H      0.922810000000     0.008500000000     0.546580000000     0.0429871  
H7       H      0.032280000000     0.065470000000     0.527190000000     0.0812098  
H8       H      0.950470000000     0.986750000000     0.448010000000     0.058011   
H9       H      0.911540000000     0.957930000000     0.534710000000     0.0580022  
H10      H      0.022250000000     0.013550000000     0.513740000000     0.0444696  
H11      H      0.880290000000     0.926550000000     0.504410000000     0.0354082  
H12      H      0.824970000000     0.826810000000     0.501930000000     0.0342805  
H13      H      0.637460000000     0.665400000000     0.563990000000     0.0336693  
H14      H      0.781800000000     0.743820000000     0.540000000000     0.0425533  
H15      H      0.679130000000     0.749080000000     0.524220000000     0.0440228  
H16      H      0.668060000000     0.695350000000     0.531600000000     0.0609055  
H17      H      0.709660000000     0.780510000000     0.492520000000     0.0443156  
H18      H      0.715830000000     0.718670000000     0.613940000000     0.0825259  
H19      H      0.795340000000     0.794390000000     0.533010000000     0.0586235  
H20      H      0.743580000000     0.779580000000     0.451000000000     0.0586971  
H21      H      0.751160000000     0.712810000000     0.572020000000     0.0443976  
H22      H      0.773240000000     0.812880000000     0.420950000000     0.0359544  
H23      H      0.291530000000     0.359620000000     0.500240000000     0.0324941  
H24      H      0.165510000000     0.144680000000     0.575410000000     0.0389699  
H25      H      0.215730000000     0.305480000000     0.533030000000     0.0431552  
H26      H      0.240230000000     0.198840000000     0.540430000000     0.0421212  
H27      H      0.194230000000     0.176400000000     0.542880000000     0.0619219  
H28      H      0.268780000000     0.231630000000     0.507960000000     0.0426501  
H29      H      0.190530000000     0.244250000000     0.614120000000     0.0816755  
H30      H      0.262460000000     0.327280000000     0.532250000000     0.0581031  
H31      H      0.266640000000     0.260650000000     0.459290000000     0.0587739  
H32      H      0.187120000000     0.272680000000     0.565420000000     0.0455222  
H33      H      0.296020000000     0.293400000000     0.428160000000     0.03618    
H34      H      0.407390000000     0.400390000000     0.496680000000     0.0326978  
H35      H      0.537170000000     0.610900000000     0.577230000000     0.0344316  
H36      H      0.439110000000     0.472930000000     0.562030000000     0.0428372  
H37      H      0.507490000000     0.538520000000     0.508370000000     0.0420336  
H38      H      0.505820000000     0.581390000000     0.545300000000     0.06062    
H39      H      0.476000000000     0.508030000000     0.476710000000     0.042698   
H40      H      0.520630000000     0.506420000000     0.605760000000     0.0814901  
H41      H      0.439150000000     0.430470000000     0.527750000000     0.057992   
H42      H      0.427470000000     0.502690000000     0.462180000000     0.0583381  
H43      H      0.470770000000     0.503140000000     0.593560000000     0.0447108  
H44      H      0.396350000000     0.471630000000     0.431250000000     0.0364664  
H45      H      0.619390000000     0.078180000000     0.256160000000     0.0322354  
H46      H      0.820480000000     0.938340000000     0.322440000000     0.0383081  
H47      H      0.696730000000     0.052510000000     0.314330000000     0.0425882  
H48      H      0.742630000000     0.963820000000     0.268410000000     0.0429765  
H49      H      0.788590000000     0.967870000000     0.291600000000     0.0611863  
H50      H      0.710440000000     0.992770000000     0.236170000000     0.0424652  
H51      H      0.734930000000     0.977030000000     0.372560000000     0.0811464  
H52      H      0.650240000000     0.048390000000     0.288940000000     0.0579523  
H53      H      0.708370000000     0.042170000000     0.211320000000     0.0571283  
H54      H      0.729210000000     0.023790000000     0.346530000000     0.0440247  
H55      H      0.676940000000     0.071770000000     0.179170000000     0.0309762  
H56      H      0.509060000000     0.179710000000     0.177620000000     0.0312492  
H57      H      0.430220000000     0.331540000000     0.387530000000     0.0315252  
H58      H      0.451060000000     0.210980000000     0.256600000000     0.0425419  
H59      H      0.486960000000     0.302900000000     0.306510000000     0.041702   
H60      H      0.461440000000     0.301540000000     0.356210000000     0.0594067  
H61      H      0.518600000000     0.272020000000     0.275540000000     0.0418937  
H62      H      0.396330000000     0.289060000000     0.287380000000     0.0817788  
H63      H      0.477480000000     0.211590000000     0.207020000000     0.0577379  
H64      H      0.541080000000     0.223220000000     0.278220000000     0.0569949  
H65      H      0.419480000000     0.241710000000     0.287690000000     0.0441382  
H66      H      0.572220000000     0.191570000000     0.247980000000     0.0322205  
H67      H      0.151020000000     0.032610000000     0.681080000000     0.0337389  
H68      H      0.296860000000     0.957300000000     0.892540000000     0.0320514  
H69      H      0.181480000000     0.975030000000     0.762580000000     0.0437449  
H70      H      0.268830000000     0.014670000000     0.809570000000     0.0419148  
H71      H      0.267490000000     0.989160000000     0.860900000000     0.0599457  
H72      H      0.239710000000     0.046990000000     0.777160000000     0.0431392  
H73      H      0.255870000000     0.918370000000     0.794140000000     0.0813501  
H74      H      0.180910000000     0.000310000000     0.712110000000     0.0586146  
H75      H      0.194820000000     0.071850000000     0.777930000000     0.0601971  
H76      H      0.210660000000     0.942730000000     0.794870000000     0.0445517  
H77      H      0.165280000000     0.103660000000     0.745950000000     0.0408841  
H78      H      0.410600000000     0.857530000000     0.826950000000     0.0349359  
H79      H      0.541590000000     0.648840000000     0.744460000000     0.0353651  
H80      H      0.444450000000     0.786740000000     0.761070000000     0.044391   
H81      H      0.515840000000     0.723330000000     0.812610000000     0.0428261  
H82      H      0.512170000000     0.679650000000     0.777190000000     0.0610445  
H83      H      0.484940000000     0.753600000000     0.845190000000     0.0432442  
H84      H      0.524980000000     0.752720000000     0.713590000000     0.0821109  
H85      H      0.443280000000     0.829210000000     0.795160000000     0.0592272  
H86      H      0.436930000000     0.756870000000     0.861510000000     0.0588432  
H87      H      0.475580000000     0.756780000000     0.728600000000     0.0452793  
H88      H      0.404910000000     0.786200000000     0.893120000000     0.0359184  
H89      H      0.545820000000     0.038170000000     0.145970000000     0.0309969  
H90      H      0.402430000000     0.956880000000     0.935010000000     0.0322872  
H91      H      0.515620000000     0.975870000000     0.067430000000     0.0426327  
H92      H      0.431020000000     0.016470000000     0.015270000000     0.0412985  
H93      H      0.431920000000     0.988910000000     0.966130000000     0.0593039  
H94      H      0.460830000000     0.049330000000     0.046170000000     0.0418731  
H95      H      0.440640000000     0.920020000000     0.035700000000     0.0807918  
H96      H      0.515450000000     0.004960000000     0.116530000000     0.0575905  
H97      H      0.507700000000     0.071250000000     0.043590000000     0.0572877  
H98      H      0.485940000000     0.943020000000     0.036330000000     0.0440781  
H99      H      0.537840000000     0.103950000000     0.073820000000     0.032529   
H100     H      0.008410000000     0.680900000000     0.173750000000     0.0313961  
H101     H      0.928310000000     0.822960000000     0.390970000000     0.0303641  
H102     H      0.974680000000     0.763000000000     0.225240000000     0.0427665  
H103     H      0.961820000000     0.741440000000     0.339180000000     0.0405394  
H104     H      0.958590000000     0.791130000000     0.360480000000     0.0587013  
H105     H      0.992870000000     0.710240000000     0.307810000000     0.04142    
H106     H      0.899960000000     0.793910000000     0.283470000000     0.080602   
H107     H      0.977260000000     0.711990000000     0.204690000000     0.0577517  
H108     H      0.038080000000     0.713200000000     0.279920000000     0.056786   
H109     H      0.943910000000     0.794400000000     0.256590000000     0.0441299  
H110     H      0.068570000000     0.681870000000     0.248450000000     0.0314274  
H111     H      0.291970000000     0.786960000000     0.930450000000     0.0368046  
H112     H      0.141500000000     0.712940000000     0.138220000000     0.030791   
H113     H      0.210300000000     0.757560000000     0.976680000000     0.0439893  
H114     H      0.222110000000     0.746330000000     0.092430000000     0.0416588  
H115     H      0.173080000000     0.744710000000     0.109210000000     0.0592977  
H116     H      0.255000000000     0.777000000000     0.062860000000     0.0434805  
H117     H      0.176000000000     0.680550000000     0.034130000000     0.081631   
H118     H      0.259040000000     0.756990000000     0.960100000000     0.0596469  
H119     H      0.257970000000     0.823490000000     0.033340000000     0.0582734  
H120     H      0.177430000000     0.727000000000     0.006200000000     0.044694   
H121     H      0.291310000000     0.852690000000     0.003190000000     0.035452   
H122     H      0.179510000000     0.579940000000     0.178980000000     0.0339444  
H123     H      0.261430000000     0.430930000000     0.389940000000     0.031415   
H124     H      0.220970000000     0.500000000000     0.226310000000     0.0436874  
H125     H      0.218690000000     0.510160000000     0.342900000000     0.0411907  
H126     H      0.228730000000     0.459280000000     0.358720000000     0.0595161  
H127     H      0.186170000000     0.538890000000     0.310840000000     0.0415584  
H128     H      0.294200000000     0.479620000000     0.292560000000     0.0821155  
H129     H      0.211770000000     0.550770000000     0.210460000000     0.0585977  
H130     H      0.145510000000     0.533170000000     0.277060000000     0.0568445  
H131     H      0.253560000000     0.471340000000     0.258380000000     0.0461773  
H132     H      0.113990000000     0.563010000000     0.245280000000     0.0318979  
H133     H      0.913740000000     0.293130000000     0.892350000000     0.0349395  
H134     H      0.037070000000     0.199060000000     0.671750000000     0.0348547  
H135     H      0.988830000000     0.265630000000     0.833370000000     0.0443603  
H136     H      0.959620000000     0.227110000000     0.728740000000     0.0424138  
H137     H      0.004510000000     0.229780000000     0.700590000000     0.0616306  
H138     H      0.927590000000     0.258440000000     0.758780000000     0.0442542  
H139     H      0.025510000000     0.183520000000     0.786180000000     0.0820451  
H140     H      0.945040000000     0.261960000000     0.861950000000     0.0598974  
H141     H      0.921630000000     0.309360000000     0.777480000000     0.059945   
H142     H      0.020750000000     0.234380000000     0.803440000000     0.0461501  
H143     H      0.890050000000     0.339850000000     0.808670000000     0.03639    
H144     H      0.650490000000     0.149930000000     0.071430000000     0.0324836  
H145     H      0.790050000000     0.354680000000     0.994450000000     0.0322817  
H146     H      0.729470000000     0.198830000000     0.041180000000     0.0426479  
H147     H      0.711950000000     0.306850000000     0.031480000000     0.0422581  
H148     H      0.759940000000     0.325830000000     0.028560000000     0.0595233  
H149     H      0.680710000000     0.276640000000     0.063730000000     0.0419646  
H150     H      0.757890000000     0.256310000000     0.959110000000     0.082682   
H151     H      0.681820000000     0.180400000000     0.040190000000     0.0582218  
H152     H      0.678810000000     0.247860000000     0.112370000000     0.0565233  
H153     H      0.760600000000     0.228990000000     0.008920000000     0.0448023  
H154     H      0.647030000000     0.216960000000     0.142720000000     0.0306493  
H155     H      0.634310000000     0.586950000000     0.756170000000     0.0356876  
H156     H      0.816430000000     0.462520000000     0.867320000000     0.03694    
H157     H      0.672280000000     0.498550000000     0.791730000000     0.0454453  
H158     H      0.775230000000     0.501700000000     0.777290000000     0.0439873  
H159     H      0.787160000000     0.495340000000     0.836490000000     0.0623546  
H160     H      0.745460000000     0.534930000000     0.746300000000     0.0448161  
H161     H      0.734590000000     0.421730000000     0.811440000000     0.08311    
H162     H      0.664180000000     0.554750000000     0.787610000000     0.0600955  
H163     H      0.708180000000     0.529020000000     0.703090000000     0.0610028  
H164     H      0.702040000000     0.465300000000     0.822650000000     0.0455499  
H165     H      0.677780000000     0.561160000000     0.672300000000     0.0363037  
H166     H      0.045980000000     0.594160000000     0.063720000000     0.039967   
H167     H      0.893520000000     0.396500000000     0.999780000000     0.0323043  
H168     H      0.019880000000     0.508460000000     0.012410000000     0.0449941  
H169     H      0.928020000000     0.475240000000     0.053720000000     0.0409356  
H170     H      0.923740000000     0.426370000000     0.032520000000     0.0589478  
H171     H      0.957510000000     0.507310000000     0.086040000000     0.0420635  
H172     H      0.949610000000     0.475610000000     0.950500000000     0.081255   
H173     H      0.017110000000     0.561100000000     0.032320000000     0.0605158  
H174     H      0.004300000000     0.506050000000     0.114310000000     0.0572257  
H175     H      0.990940000000     0.475730000000     0.980400000000     0.0446056  
H176     H      0.033450000000     0.539580000000     0.145070000000     0.0310983  
In1      In     0.847540000000     0.370300000000     0.905300000000     2.4352     
In2      In     0.091440000000     0.624760000000     0.157830000000     2.40901    
In3      In     0.349380000000     0.871400000000     0.914100000000     2.42688    
In4      In     0.594910000000     0.128790000000     0.161600000000     2.40824    
In5      In     0.346680000000     0.382410000000     0.410000000000     2.42004    
In6      In     0.601870000000     0.627870000000     0.659510000000     2.43309    
In7      In     0.848140000000     0.881440000000     0.409710000000     2.42306    
In8      In     0.104490000000     0.123730000000     0.659750000000     2.43172    
N1       N      0.050930000000     0.077020000000     0.603490000000    -0.204042   
N2       N      0.897750000000     0.938090000000     0.459410000000    -0.193445   
N3       N      0.072960000000     0.094990000000     0.554460000000    -0.0309431  
N4       N      0.658570000000     0.674680000000     0.607670000000    -0.203333   
N5       N      0.801120000000     0.822290000000     0.459320000000    -0.193211   
N6       N      0.688260000000     0.685040000000     0.653950000000    -0.0307412  
N7       N      0.160660000000     0.176070000000     0.613170000000    -0.203087   
N8       N      0.295890000000     0.328780000000     0.462000000000    -0.194563   
N9       N      0.161550000000     0.213610000000     0.655460000000    -0.0306372  
N10      N      0.547090000000     0.576060000000     0.609970000000    -0.204654   
N11      N      0.399620000000     0.433860000000     0.461800000000    -0.194487   
N12      N      0.552720000000     0.533950000000     0.646550000000    -0.0307878  
N13      N      0.796480000000     0.940320000000     0.365310000000    -0.203635   
N14      N      0.645990000000     0.077110000000     0.215390000000    -0.195302   
N15      N      0.767750000000     0.949320000000     0.412660000000    -0.0307072  
N16      N      0.395150000000     0.327690000000     0.356050000000    -0.203942   
N17      N      0.542830000000     0.183340000000     0.210740000000    -0.195062   
N18      N      0.357040000000     0.317260000000     0.318460000000    -0.0306701  
N19      N      0.293610000000     0.919450000000     0.861930000000    -0.20421    
N20      N      0.156000000000     0.070380000000     0.711320000000    -0.193692   
N21      N      0.283690000000     0.877900000000     0.825820000000    -0.0306088  
N22      N      0.550400000000     0.682570000000     0.710030000000    -0.203793   
N23      N      0.405390000000     0.823860000000     0.862220000000    -0.193641   
N24      N      0.554950000000     0.723590000000     0.671910000000    -0.0307242  
N25      N      0.404320000000     0.919860000000     0.966910000000    -0.203909   
N26      N      0.543970000000     0.073380000000     0.112000000000    -0.195097   
N27      N      0.412520000000     0.879300000000     0.004800000000    -0.0303421  
N28      N      0.896850000000     0.827400000000     0.355060000000    -0.205023   
N29      N      0.040650000000     0.679140000000     0.208910000000    -0.195667   
N30      N      0.865060000000     0.831400000000     0.309410000000    -0.0309234  
N31      N      0.140320000000     0.678430000000     0.103270000000    -0.203469   
N32      N      0.293970000000     0.821940000000     0.964690000000    -0.193072   
N33      N      0.139220000000     0.643830000000     0.058230000000    -0.0308395  
N34      N      0.296600000000     0.438140000000     0.359300000000    -0.203709   
N35      N      0.144510000000     0.573610000000     0.209940000000    -0.19512    
N36      N      0.334660000000     0.452880000000     0.323310000000    -0.030573   
N37      N      0.050460000000     0.173720000000     0.711980000000    -0.203334   
N38      N      0.899730000000     0.318720000000     0.852680000000    -0.19437    
N39      N      0.064500000000     0.149730000000     0.761840000000    -0.0313114  
N40      N      0.791980000000     0.322190000000     0.957420000000    -0.203747   
N41      N      0.646590000000     0.181250000000     0.109280000000    -0.195538   
N42      N      0.787670000000     0.283860000000     0.916210000000    -0.0320117  
N43      N      0.792910000000     0.423090000000     0.857040000000    -0.20344    
N44      N      0.653860000000     0.576240000000     0.712040000000    -0.193      
N45      N      0.760820000000     0.381680000000     0.845670000000    -0.0308551  
N46      N      0.904100000000     0.418270000000     0.956270000000    -0.203248   
N47      N      0.041790000000     0.569190000000     0.106580000000    -0.194197   
N48      N      0.922220000000     0.443840000000     0.909040000000    -0.0299975  
O1       O      0.817470000000     0.364780000000     0.946970000000    -0.497765   
O2       O      0.823240000000     0.328270000000     0.916170000000    -0.481673   
O3       O      0.829780000000     0.415450000000     0.891410000000    -0.494648   
O4       O      0.880270000000     0.406540000000     0.910240000000    -0.479704   
O5       O      0.879460000000     0.333180000000     0.899650000000    -0.50218    
O6       O      0.870710000000     0.381340000000     0.951060000000    -0.496757   
O7       O      0.811540000000     0.377400000000     0.870670000000    -0.476095   
O8       O      0.867360000000     0.356440000000     0.858300000000    -0.494188   
O9       O      0.051300000000     0.651550000000     0.164540000000    -0.505508   
O10      O      0.081490000000     0.652750000000     0.201300000000    -0.498237   
O11      O      0.101540000000     0.595080000000     0.200100000000    -0.49354    
O12      O      0.064540000000     0.583030000000     0.152420000000    -0.500542   
O13      O      0.113140000000     0.668910000000     0.147430000000    -0.501705   
O14      O      0.068650000000     0.611310000000     0.112680000000    -0.485333   
O15      O      0.133950000000     0.603180000000     0.167050000000    -0.499913   
O16      O      0.118440000000     0.633820000000     0.114680000000    -0.46897    
O17      O      0.376300000000     0.878680000000     0.957950000000    -0.479183   
O18      O      0.376860000000     0.911950000000     0.922710000000    -0.501806   
O19      O      0.376350000000     0.830410000000     0.905260000000    -0.491848   
O20      O      0.322100000000     0.830480000000     0.921320000000    -0.491761   
O21      O      0.321450000000     0.911800000000     0.905910000000    -0.501742   
O22      O      0.321720000000     0.863320000000     0.957280000000    -0.492977   
O23      O      0.378330000000     0.865340000000     0.871710000000    -0.495651   
O24      O      0.321940000000     0.878530000000     0.870690000000    -0.481029   
O25      O      0.553500000000     0.153230000000     0.168310000000    -0.503149   
O26      O      0.584720000000     0.158790000000     0.203470000000    -0.491127   
O27      O      0.567820000000     0.117430000000     0.118960000000    -0.493086   
O28      O      0.621370000000     0.138340000000     0.117880000000    -0.494835   
O29      O      0.605530000000     0.104000000000     0.207100000000    -0.493573   
O30      O      0.619400000000     0.171640000000     0.153190000000    -0.504442   
O31      O      0.571380000000     0.085070000000     0.155190000000    -0.504018   
O32      O      0.634620000000     0.101640000000     0.169290000000    -0.505239   
O33      O      0.322220000000     0.339530000000     0.417760000000    -0.498391   
O34      O      0.320160000000     0.372370000000     0.453600000000    -0.495038   
O35      O      0.354930000000     0.355040000000     0.365670000000    -0.470089   
O36      O      0.337630000000     0.411800000000     0.367440000000    -0.470284   
O37      O      0.375330000000     0.390520000000     0.452250000000    -0.494439   
O38      O      0.306230000000     0.408440000000     0.402530000000    -0.504671   
O39      O      0.386530000000     0.355930000000     0.400630000000    -0.504756   
O40      O      0.370570000000     0.425480000000     0.419140000000    -0.496629   
O41      O      0.581750000000     0.583440000000     0.647400000000    -0.486271   
O42      O      0.568350000000     0.620890000000     0.621540000000    -0.497426   
O43      O      0.570370000000     0.637030000000     0.698900000000    -0.495439   
O44      O      0.618090000000     0.610310000000     0.706620000000    -0.489497   
O45      O      0.621100000000     0.642520000000     0.612730000000    -0.498361   
O46      O      0.637600000000     0.594770000000     0.664650000000    -0.494533   
O47      O      0.582980000000     0.673270000000     0.670630000000    -0.479288   
O48      O      0.638310000000     0.660080000000     0.654940000000    -0.479475   
O49      O      0.882650000000     0.916280000000     0.413100000000    -0.498178   
O50      O      0.862260000000     0.903520000000     0.455550000000    -0.486101   
O51      O      0.836190000000     0.911200000000     0.368370000000    -0.493735   
O52      O      0.887710000000     0.854110000000     0.400620000000    -0.507734   
O53      O      0.838470000000     0.854390000000     0.453940000000    -0.490099   
O54      O      0.856270000000     0.853800000000     0.365570000000    -0.48021    
O55      O      0.809270000000     0.910960000000     0.407970000000    -0.482627   
O56      O      0.811940000000     0.848670000000     0.414180000000    -0.493627   
O57      O      0.128180000000     0.167070000000     0.652630000000    -0.478013   
O58      O      0.136910000000     0.131950000000     0.621000000000    -0.491727   
O59      O      0.134040000000     0.114960000000     0.701120000000    -0.486987   
O60      O      0.081000000000     0.134260000000     0.705140000000    -0.478658   
O61      O      0.084650000000     0.113130000000     0.612090000000    -0.479507   
O62      O      0.073280000000     0.161680000000     0.665490000000    -0.496273   
O63      O      0.126550000000     0.079600000000     0.669210000000    -0.498796   
O64      O      0.070640000000     0.088800000000     0.651810000000    -0.502294   
O65      O      0.066290000000     0.112800000000     0.531510000000    -0.0986118  
O66      O      0.098940000000     0.086940000000     0.557690000000    -0.0870218  
O67      O      0.695110000000     0.707780000000     0.671200000000    -0.0947868  
O68      O      0.693670000000     0.658500000000     0.664350000000    -0.0911554  
O69      O      0.152700000000     0.240540000000     0.660050000000    -0.0960867  
O70      O      0.169610000000     0.197960000000     0.679620000000    -0.0868652  
O71      O      0.564160000000     0.507790000000     0.645750000000    -0.0979929  
O72      O      0.545750000000     0.545230000000     0.673710000000    -0.0906191  
O73      O      0.742890000000     0.942370000000     0.422700000000    -0.0981536  
O74      O      0.785960000000     0.959650000000     0.432660000000    -0.0912561  
O75      O      0.337550000000     0.305890000000     0.336160000000    -0.0859096  
O76      O      0.351090000000     0.324430000000     0.289480000000    -0.093452   
O77      O      0.288980000000     0.870870000000     0.796640000000    -0.0980107  
O78      O      0.274780000000     0.857470000000     0.845030000000    -0.0908723  
O79      O      0.566790000000     0.749560000000     0.671270000000    -0.0943719  
O80      O      0.546590000000     0.711770000000     0.645530000000    -0.0894112  
O81      O      0.405860000000     0.873470000000     0.033930000000    -0.0983572  
O82      O      0.422020000000     0.858030000000     0.987030000000    -0.0909653  
O83      O      0.847440000000     0.813680000000     0.295570000000    -0.0989261  
O84      O      0.863990000000     0.859640000000     0.303230000000    -0.0866606  
O85      O      0.156550000000     0.625850000000     0.044290000000    -0.0979045  
O86      O      0.112600000000     0.641470000000     0.052340000000    -0.0858034  
O87      O      0.353070000000     0.463880000000     0.342650000000    -0.0854152  
O88      O      0.341690000000     0.448360000000     0.294030000000    -0.0938035  
O89      O      0.053000000000     0.131300000000     0.781570000000    -0.0976768  
O90      O      0.091320000000     0.154380000000     0.763470000000    -0.0808678  
O91      O      0.779380000000     0.299210000000     0.891930000000    -0.0728031  
O92      O      0.795150000000     0.256390000000     0.912120000000    -0.0962333  
O93      O      0.752320000000     0.366520000000     0.821360000000    -0.0911303  
O94      O      0.755840000000     0.371530000000     0.873880000000    -0.0848532  
O95      O      0.931630000000     0.422310000000     0.891560000000    -0.0909249  
O96      O      0.920200000000     0.470270000000     0.896960000000    -0.0973641  


