data_structure

_audit_creation_method RASPA-1.0
_audit_creation_date 2023-5-22
_audit_author_name 'Poobodin Mano'

_cell_length_a    45.4788
_cell_length_b    45.4583
_cell_length_c    44.5206
_cell_angle_alpha 90
_cell_angle_beta  90
_cell_angle_gamma 90
_cell_volume      92041.4

_symmetry_cell_setting          triclinic
_symmetry_space_group_name_Hall 'P 1'
_symmetry_space_group_name_H-M  'P 1'
_symmetry_Int_Tables_number     1

_symmetry_equiv_pos_as_xyz 'x,y,z'

loop_
_atom_site_label
_atom_site_type_symbol
_atom_site_fract_x
_atom_site_fract_y
_atom_site_fract_z
_atom_site_charge
C1       C      0.907720000000     0.404250000000     0.923460000000     0.412992   
C2       C      0.834640000000     0.404580000000     0.855640000000     0.419747   
C3       C      0.906400000000     0.339320000000     0.851270000000     0.415844   
C4       C      0.839190000000     0.336260000000     0.924930000000     0.417283   
C5       C      0.094350000000     0.589140000000     0.093890000000     0.42014    
C6       C      0.162990000000     0.584880000000     0.165590000000     0.420425   
C7       C      0.166930000000     0.650570000000     0.091900000000     0.419161   
C8       C      0.098290000000     0.657480000000     0.164250000000     0.424288   
C9       C      0.403440000000     0.917600000000     0.914580000000     0.418702   
C10      C      0.407310000000     0.844830000000     0.846190000000     0.415298   
C11      C      0.339850000000     0.842390000000     0.914370000000     0.416814   
C12      C      0.337740000000     0.914580000000     0.845920000000     0.419913   
C13      C      0.661780000000     0.155280000000     0.109250000000     0.418369   
C14      C      0.584010000000     0.091520000000     0.103100000000     0.415247   
C15      C      0.657240000000     0.086640000000     0.170630000000     0.412599   
C16      C      0.581740000000     0.154110000000     0.170380000000     0.419761   
C17      C      0.337540000000     0.408000000000     0.357090000000     0.416184   
C18      C      0.410350000000     0.341680000000     0.353990000000     0.415623   
C19      C      0.411720000000     0.408770000000     0.422600000000     0.420755   
C20      C      0.341800000000     0.339140000000     0.425130000000     0.419296   
C21      C      0.659150000000     0.588430000000     0.671970000000     0.417484   
C22      C      0.589280000000     0.659720000000     0.670370000000     0.418929   
C23      C      0.659380000000     0.662290000000     0.604950000000     0.414308   
C24      C      0.595220000000     0.586430000000     0.604080000000     0.414049   
C25      C      0.911370000000     0.833150000000     0.344490000000     0.416133   
C26      C      0.909320000000     0.903710000000     0.411400000000     0.419831   
C27      C      0.838170000000     0.899420000000     0.344970000000     0.419968   
C28      C      0.840940000000     0.830040000000     0.411820000000     0.417677   
C29      C      0.077410000000     0.158980000000     0.660330000000     0.417037   
C30      C      0.149960000000     0.090800000000     0.667310000000     0.41814    
C31      C      0.083850000000     0.086930000000     0.596570000000     0.415463   
C32      C      0.151890000000     0.160430000000     0.599060000000     0.415077   
C33      C      0.971780000000     0.949010000000     0.437450000000    -0.0589188  
C34      C      0.039710000000     0.060240000000     0.588090000000     0.0781713  
C35      C      0.078410000000     0.058110000000     0.552440000000     0.078813   
C36      C      0.022440000000     0.041740000000     0.570310000000    -0.0933709  
C37      C      0.998340000000     0.989240000000     0.535390000000    -0.0322733  
C38      C      0.981120000000     0.971390000000     0.516830000000    -0.0357902  
C39      C      0.015000000000     0.012380000000     0.523200000000    -0.00635802 
C40      C      0.061680000000     0.039730000000     0.534020000000    -0.0938825  
C41      C      0.980090000000     0.976370000000     0.485660000000     0.000329744
C42      C      0.933670000000     0.948540000000     0.474770000000    -0.0849222  
C43      C      0.996660000000     0.999650000000     0.473540000000    -0.0356931  
C44      C      0.916570000000     0.931200000000     0.455740000000     0.0731421  
C45      C      0.953900000000     0.932230000000     0.418280000000     0.0285318  
C46      C      0.013960000000     0.017380000000     0.492080000000    -0.0317175  
C47      C      0.033300000000     0.031410000000     0.542820000000     0.0531821  
C48      C      0.961710000000     0.957500000000     0.465840000000     0.0404393  
C49      C      0.965080000000     0.927720000000     0.387290000000     0.295244   
C50      C      0.776400000000     0.789680000000     0.440730000000    -0.0588072  
C51      C      0.705680000000     0.684060000000     0.594110000000     0.0768605  
C52      C      0.664700000000     0.693640000000     0.562640000000     0.0774355  
C53      C      0.723740000000     0.701190000000     0.575710000000    -0.0941252  
C54      C      0.751490000000     0.752000000000     0.540420000000    -0.0325221  
C55      C      0.769500000000     0.767910000000     0.520810000000    -0.0358136  
C56      C      0.731240000000     0.731400000000     0.529230000000    -0.00668092 
C57      C      0.682190000000     0.710640000000     0.543580000000    -0.0940572  
C58      C      0.767850000000     0.763370000000     0.489580000000     0.000373064
C59      C      0.816230000000     0.786480000000     0.475970000000    -0.0847231  
C60      C      0.747720000000     0.742510000000     0.478500000000    -0.0357217  
C61      C      0.833840000000     0.802350000000     0.456090000000     0.0732945  
C62      C      0.794780000000     0.804800000000     0.420620000000     0.0292342  
C63      C      0.729540000000     0.726850000000     0.498080000000    -0.031885   
C64      C      0.712120000000     0.714400000000     0.549900000000     0.0526713  
C65      C      0.787010000000     0.780250000000     0.468620000000     0.0404111  
C66      C      0.782680000000     0.810210000000     0.390140000000     0.296812   
C67      C      0.310140000000     0.273770000000     0.462440000000    -0.0590231  
C68      C      0.161920000000     0.187740000000     0.554760000000     0.0790162  
C69      C      0.196590000000     0.187120000000     0.594540000000     0.0777179  
C70      C      0.180390000000     0.205690000000     0.537680000000    -0.0933874  
C71      C      0.216820000000     0.256290000000     0.513330000000    -0.0321174  
C72      C      0.235800000000     0.273570000000     0.496040000000    -0.0356667  
C73      C      0.227840000000     0.233220000000     0.531120000000    -0.00619306 
C74      C      0.215580000000     0.205120000000     0.578100000000    -0.0932549  
C75      C      0.266250000000     0.268210000000     0.496140000000     0.000316735
C76      C      0.282670000000     0.316950000000     0.475790000000    -0.0851263  
C77      C      0.277270000000     0.245240000000     0.514060000000    -0.0357183  
C78      C      0.301970000000     0.333840000000     0.458630000000     0.0733664  
C79      C      0.329780000000     0.291280000000     0.445890000000     0.0287926  
C80      C      0.258300000000     0.227950000000     0.531300000000    -0.0317313  
C81      C      0.207660000000     0.214550000000     0.549230000000     0.0529201  
C82      C      0.286460000000     0.286520000000     0.477690000000     0.0405384  
C83      C      0.356210000000     0.276170000000     0.433860000000     0.294647   
C84      C      0.469360000000     0.461660000000     0.445350000000    -0.058936   
C85      C      0.560130000000     0.547900000000     0.600220000000     0.0791408  
C86      C      0.581270000000     0.568180000000     0.556160000000     0.0781618  
C87      C      0.542770000000     0.529020000000     0.582960000000    -0.0932417  
C88      C      0.495850000000     0.506000000000     0.540690000000    -0.0317925  
C89      C      0.477600000000     0.488720000000     0.522650000000    -0.0358659  
C90      C      0.525390000000     0.510730000000     0.532750000000    -0.00637158 
C91      C      0.564230000000     0.549640000000     0.538210000000    -0.0934454  
C92      C      0.488430000000     0.475770000000     0.496200000000     0.000502328
C93      C      0.448250000000     0.438740000000     0.488890000000    -0.0846234  
C94      C      0.518030000000     0.480280000000     0.488360000000    -0.036199   
C95      C      0.429290000000     0.423080000000     0.470220000000     0.0734985  
C96      C      0.449540000000     0.446240000000     0.426950000000     0.0299095  
C97      C      0.536310000000     0.497530000000     0.506440000000    -0.031574   
C98      C      0.544510000000     0.529860000000     0.551540000000     0.053048   
C99      C      0.468690000000     0.458190000000     0.476550000000     0.0406263  
C100     C      0.449310000000     0.454490000000     0.394700000000     0.293577   
C101     C      0.786880000000     0.923750000000     0.285580000000    -0.0596426  
C102     C      0.690270000000     0.079300000000     0.211310000000     0.0780562  
C103     C      0.678360000000     0.039570000000     0.179000000000     0.077624   
C104     C      0.708540000000     0.061070000000     0.228330000000    -0.0930323  
C105     C      0.758120000000     0.020910000000     0.249250000000    -0.0320673  
C106     C      0.775780000000     0.002180000000     0.266420000000    -0.0354046  
C107     C      0.730540000000     0.011460000000     0.238750000000    -0.00614083 
C108     C      0.696340000000     0.020710000000     0.195570000000    -0.0935459  
C109     C      0.766220000000     0.973600000000     0.273560000000     0.000465521
C110     C      0.799880000000     0.964540000000     0.317170000000    -0.0844961  
C111     C      0.738610000000     0.964190000000     0.263070000000    -0.0354796  
C112     C      0.816840000000     0.945620000000     0.334680000000     0.07449    
C113     C      0.803490000000     0.904900000000     0.303950000000     0.0325577  
C114     C      0.721010000000     0.982880000000     0.245830000000    -0.0318118  
C115     C      0.711660000000     0.031350000000     0.220610000000     0.0528818  
C116     C      0.784810000000     0.953770000000     0.292150000000     0.0414788  
C117     C      0.800950000000     0.872940000000     0.297570000000     0.291853   
C118     C      0.527160000000     0.210380000000     0.192000000000    -0.0585301  
C119     C      0.447450000000     0.305280000000     0.348440000000     0.0797809  
C120     C      0.424650000000     0.325720000000     0.305330000000     0.0788908  
C121     C      0.464520000000     0.286820000000     0.330410000000    -0.0928475  
C122     C      0.508600000000     0.261550000000     0.286160000000    -0.031772   
C123     C      0.524880000000     0.242520000000     0.267930000000    -0.0354343  
C124     C      0.479000000000     0.267720000000     0.279540000000    -0.00592695 
C125     C      0.441400000000     0.307630000000     0.286630000000    -0.0930845  
C126     C      0.511970000000     0.229300000000     0.242620000000     0.000728047
C127     C      0.547550000000     0.187740000000     0.236070000000    -0.0846001  
C128     C      0.482410000000     0.235500000000     0.235960000000    -0.0356727  
C129     C      0.563800000000     0.168980000000     0.217690000000     0.0741067  
C130     C      0.543290000000     0.190880000000     0.173870000000     0.0301272  
C131     C      0.466110000000     0.254460000000     0.254220000000    -0.0314024  
C132     C      0.461520000000     0.287710000000     0.299090000000     0.0533608  
C133     C      0.529270000000     0.209010000000     0.223310000000     0.0409701  
C134     C      0.536680000000     0.191410000000     0.141190000000     0.295843   
C135     C      0.190210000000     0.063240000000     0.733650000000    -0.0592912  
C136     C      0.318570000000     0.927900000000     0.798180000000     0.0786298  
C137     C      0.303970000000     0.954200000000     0.841700000000     0.0808532  
C138     C      0.300410000000     0.945410000000     0.780280000000    -0.0934618  
C139     C      0.272270000000     0.995760000000     0.745910000000    -0.0318647  
C140     C      0.253480000000     0.013050000000     0.728420000000    -0.0359065  
C141     C      0.263740000000     0.986440000000     0.774760000000    -0.00625638 
C142     C      0.285680000000     0.972190000000     0.824470000000    -0.0932601  
C143     C      0.225800000000     0.021540000000     0.739440000000     0.000302838
C144     C      0.201280000000     0.033410000000     0.690580000000    -0.0851381  
C145     C      0.217270000000     0.012280000000     0.768260000000    -0.0358853  
C146     C      0.181870000000     0.050380000000     0.673620000000     0.0727265  
C147     C      0.170370000000     0.079750000000     0.716320000000     0.0296631  
C148     C      0.235980000000     0.994890000000     0.785690000000    -0.0316755  
C149     C      0.283580000000     0.967850000000     0.793360000000     0.0533824  
C150     C      0.205750000000     0.039830000000     0.720890000000     0.0405724  
C151     C      0.152090000000     0.101480000000     0.732820000000     0.294098   
C152     C      0.522390000000     0.692830000000     0.703330000000    -0.0588879  
C153     C      0.454840000000     0.831220000000     0.828860000000     0.07712    
C154     C      0.412730000000     0.805760000000     0.811240000000     0.0779918  
C155     C      0.473100000000     0.813460000000     0.811290000000    -0.0933753  
C156     C      0.504090000000     0.783400000000     0.758940000000    -0.0322731  
C157     C      0.521850000000     0.765080000000     0.741410000000    -0.0358693  
C158     C      0.479930000000     0.771860000000     0.774770000000    -0.00648896 
C159     C      0.430310000000     0.787600000000     0.793450000000    -0.0940274  
C160     C      0.515860000000     0.734800000000     0.739300000000     0.000266048
C161     C      0.565330000000     0.717980000000     0.721340000000    -0.0849539  
C162     C      0.491780000000     0.723270000000     0.755230000000    -0.0359156  
C163     C      0.582790000000     0.698790000000     0.704630000000     0.0727992  
C164     C      0.540370000000     0.673290000000     0.687200000000     0.0286426  
C165     C      0.474040000000     0.741570000000     0.772730000000    -0.031895   
C166     C      0.460900000000     0.791270000000     0.793340000000     0.0526537  
C167     C      0.534770000000     0.715190000000     0.720810000000     0.0403466  
C168     C      0.525240000000     0.648130000000     0.672620000000     0.294351   
C169     C      0.452180000000     0.978040000000     0.939180000000    -0.0589141  
C170     C      0.550230000000     0.052190000000     0.096480000000     0.0796962  
C171     C      0.562870000000     0.082590000000     0.055170000000     0.0800108  
C172     C      0.531970000000     0.035210000000     0.078160000000    -0.0934632  
C173     C      0.509920000000     0.993080000000     0.030210000000    -0.0321887  
C174     C      0.492200000000     0.976030000000     0.011380000000    -0.0356974  
C175     C      0.510160000000     0.023900000000     0.027660000000    -0.00616965 
C176     C      0.544750000000     0.066130000000     0.036220000000    -0.0931914  
C177     C      0.474280000000     0.989390000000     0.989560000000     0.000370173
C178     C      0.439670000000     0.947310000000     0.981150000000    -0.0848786  
C179     C      0.474500000000     0.020230000000     0.987040000000    -0.0355705  
C180     C      0.421930000000     0.930480000000     0.962270000000     0.0730208  
C181     C      0.433640000000     0.961210000000     0.920670000000     0.0295237  
C182     C      0.492250000000     0.037280000000     0.005840000000    -0.0317011  
C183     C      0.529130000000     0.042010000000     0.047600000000     0.0535322  
C184     C      0.455310000000     0.971230000000     0.969650000000     0.0405506  
C185     C      0.428760000000     0.972520000000     0.889780000000     0.294961   
C186     C      0.058460000000     0.722930000000     0.192170000000    -0.0592438  
C187     C      0.937000000000     0.788370000000     0.335880000000     0.0789162  
C188     C      0.941860000000     0.827940000000     0.301530000000     0.0807029  
C189     C      0.956060000000     0.771160000000     0.318650000000    -0.0927646  
C190     C      0.009590000000     0.746090000000     0.286730000000    -0.0318945  
C191     C      0.028360000000     0.729040000000     0.268950000000    -0.0354772  
C192     C      0.988440000000     0.764520000000     0.273410000000    -0.0058237  
C193     C      0.961010000000     0.811360000000     0.283800000000    -0.0928575  
C194     C      0.026450000000     0.730090000000     0.237450000000     0.000494829
C195     C      0.051280000000     0.682250000000     0.225780000000    -0.0849194  
C196     C      0.005340000000     0.748540000000     0.224150000000    -0.0351857  
C197     C      0.068550000000     0.664820000000     0.206990000000     0.0752329  
C198     C      0.075290000000     0.704860000000     0.173210000000     0.0316211  
C199     C      0.986560000000     0.765530000000     0.241900000000    -0.031434   
C200     C      0.968320000000     0.782570000000     0.292230000000     0.0535761  
C201     C      0.045990000000     0.711630000000     0.218460000000     0.0415422  
C202     C      0.084220000000     0.717920000000     0.144060000000     0.29286    
C203     C      0.232710000000     0.684520000000     0.057730000000    -0.058481   
C204     C      0.293320000000     0.824700000000     0.930520000000     0.0773389  
C205     C      0.337010000000     0.803510000000     0.949930000000     0.077929   
C206     C      0.276220000000     0.805660000000     0.947850000000    -0.0937307  
C207     C      0.246180000000     0.774330000000     0.999620000000    -0.031846   
C208     C      0.229250000000     0.755010000000     0.016870000000    -0.035715   
C209     C      0.271900000000     0.764510000000     0.985240000000    -0.00640717 
C210     C      0.320580000000     0.784130000000     0.967570000000    -0.0938562  
C211     C      0.237660000000     0.725430000000     0.020190000000     0.000829721
C212     C      0.188910000000     0.705140000000     0.036170000000    -0.0839083  
C213     C      0.263410000000     0.715620000000     0.005880000000    -0.0358336  
C214     C      0.172140000000     0.685920000000     0.053520000000     0.0751106  
C215     C      0.215420000000     0.664900000000     0.074590000000     0.0302656  
C216     C      0.280330000000     0.734930000000     0.988600000000    -0.0315846  
C217     C      0.289790000000     0.785020000000     0.966690000000     0.0527962  
C218     C      0.219530000000     0.704890000000     0.038410000000     0.0409633  
C219     C      0.231440000000     0.641680000000     0.091410000000     0.294984   
C220     C      0.195740000000     0.519160000000     0.201400000000    -0.0588634  
C221     C      0.320290000000     0.455140000000     0.342380000000     0.0782145  
C222     C      0.299760000000     0.412270000000     0.320460000000     0.0780436  
C223     C      0.302310000000     0.472970000000     0.324650000000    -0.0926604  
C224     C      0.275730000000     0.505030000000     0.271720000000    -0.0317057  
C225     C      0.258630000000     0.522440000000     0.252670000000    -0.0356537  
C226     C      0.264320000000     0.478950000000     0.284110000000    -0.00612515 
C227     C      0.281560000000     0.429450000000     0.302240000000    -0.0930944  
C228     C      0.229740000000     0.514140000000     0.245390000000     0.000509523
C229     C      0.211930000000     0.562930000000     0.226640000000    -0.0849712  
C230     C      0.218240000000     0.488130000000     0.257770000000    -0.0362549  
C231     C      0.195740000000     0.579710000000     0.206330000000     0.0751986  
C232     C      0.180260000000     0.536500000000     0.180590000000     0.0309075  
C233     C      0.235300000000     0.470780000000     0.276990000000    -0.0315503  
C234     C      0.282800000000     0.460230000000     0.304030000000     0.052748   
C235     C      0.211930000000     0.532300000000     0.224460000000     0.0411491  
C236     C      0.167140000000     0.520660000000     0.154700000000     0.293998   
C237     C      0.032090000000     0.222300000000     0.684030000000    -0.0584938  
C238     C      0.936030000000     0.297270000000     0.842210000000     0.0785615  
C239     C      0.928120000000     0.332000000000     0.803300000000     0.0774373  
C240     C      0.953210000000     0.280030000000     0.823100000000    -0.0941079  
C241     C      0.001430000000     0.256340000000     0.782980000000    -0.0319915  
C242     C      0.017780000000     0.238350000000     0.763800000000    -0.0359478  
C243     C      0.975910000000     0.270580000000     0.772640000000    -0.00656534 
C244     C      0.945230000000     0.315320000000     0.783580000000    -0.0937436  
C245     C      0.009070000000     0.234240000000     0.733810000000     0.000655265
C246     C      0.035750000000     0.187110000000     0.724110000000    -0.0839716  
C247     C      0.983800000000     0.248770000000     0.723330000000    -0.0359564  
C248     C      0.051810000000     0.168720000000     0.705230000000     0.0740511  
C249     C      0.047880000000     0.203180000000     0.665160000000     0.0286908  
C250     C      0.967380000000     0.266710000000     0.742530000000    -0.0316851  
C251     C      0.957980000000     0.288930000000     0.793360000000     0.0529109  
C252     C      0.026040000000     0.214410000000     0.713760000000     0.040404   
C253     C      0.050060000000     0.211770000000     0.633050000000     0.295138   
C254     C      0.709450000000     0.217060000000     0.086300000000    -0.0588054  
C255     C      0.811150000000     0.292810000000     0.932410000000     0.0799618  
C256     C      0.816940000000     0.326940000000     0.972260000000     0.0789717  
C257     C      0.794020000000     0.274650000000     0.950660000000    -0.0935663  
C258     C      0.744920000000     0.249250000000     0.988670000000    -0.0316203  
C259     C      0.727810000000     0.231250000000     0.007150000000    -0.0356247  
C260     C      0.769810000000     0.263770000000     0.000140000000    -0.00620722 
C261     C      0.799830000000     0.309340000000     0.991120000000    -0.0930265  
C262     C      0.735100000000     0.227440000000     0.037570000000     0.000560624
C263     C      0.707200000000     0.180910000000     0.047020000000    -0.0849757  
C264     C      0.759930000000     0.241990000000     0.049100000000    -0.0358026  
C265     C      0.689850000000     0.163280000000     0.065510000000     0.0736185  
C266     C      0.692370000000     0.198730000000     0.104790000000     0.0298091  
C267     C      0.777110000000     0.259910000000     0.030590000000    -0.0315832  
C268     C      0.788100000000     0.282810000000     0.980420000000     0.0534599  
C269     C      0.716880000000     0.208300000000     0.057170000000     0.0408659  
C270     C      0.688820000000     0.208150000000     0.136530000000     0.295075   
C271     C      0.769470000000     0.431250000000     0.814130000000    -0.0585376  
C272     C      0.694510000000     0.550150000000     0.676030000000     0.0778938  
C273     C      0.673800000000     0.571090000000     0.719980000000     0.0781005  
C274     C      0.711600000000     0.531100000000     0.693400000000    -0.0938945  
C275     C      0.757210000000     0.505860000000     0.736090000000    -0.0321204  
C276     C      0.774370000000     0.487580000000     0.754260000000    -0.0360408  
C277     C      0.727870000000     0.512100000000     0.743750000000    -0.00652796 
C278     C      0.690600000000     0.552430000000     0.738020000000    -0.0936776  
C279     C      0.762600000000     0.475120000000     0.780550000000     0.000416685
C280     C      0.810200000000     0.464000000000     0.806480000000    -0.0850408  
C281     C      0.733190000000     0.481170000000     0.788080000000    -0.035825   
C282     C      0.827130000000     0.446580000000     0.825550000000     0.0737077  
C283     C      0.786670000000     0.414390000000     0.833910000000     0.0280907  
C284     C      0.716030000000     0.499390000000     0.769890000000    -0.0317399  
C285     C      0.709790000000     0.532070000000     0.724810000000     0.0528378  
C286     C      0.781080000000     0.456350000000     0.800360000000     0.0403407  
C287     C      0.771210000000     0.390530000000     0.850290000000     0.295613   
C288     C      0.027420000000     0.558690000000     0.058770000000    -0.0589054  
C289     C      0.955380000000     0.415630000000     0.941990000000     0.0766319  
C290     C      0.914540000000     0.444960000000     0.956120000000     0.078402   
C291     C      0.974260000000     0.433490000000     0.958750000000    -0.0935285  
C292     C      0.006060000000     0.465940000000     0.008970000000    -0.0318167  
C293     C      0.024490000000     0.484600000000     0.025400000000    -0.0356932  
C294     C      0.982820000000     0.477480000000     0.991790000000    -0.00639886 
C295     C      0.932750000000     0.463240000000     0.973090000000    -0.0938027  
C296     C      0.020030000000     0.515190000000     0.025050000000     0.000773169
C297     C      0.069750000000     0.531050000000     0.043160000000    -0.0839245  
C298     C      0.996930000000     0.526730000000     0.007700000000    -0.0357675  
C299     C      0.087530000000     0.550110000000     0.059670000000     0.0752573  
C300     C      0.045740000000     0.578000000000     0.074760000000     0.0311993  
C301     C      0.978560000000     0.508110000000     0.991270000000    -0.0315154  
C302     C      0.963050000000     0.457760000000     0.974430000000     0.0527928  
C303     C      0.039320000000     0.535070000000     0.042760000000     0.041227   
C304     C      0.031480000000     0.604590000000     0.087570000000     0.294398   
H1       H      0.100260000000     0.064090000000     0.544840000000     0.0316799  
H2       H      0.895170000000     0.924450000000     0.464010000000     0.0331807  
H3       H      0.026160000000     0.035350000000     0.482070000000     0.0412981  
H4       H      0.968940000000     0.953430000000     0.526850000000     0.0413602  
H5       H      0.924760000000     0.955060000000     0.496320000000     0.0543047  
H6       H      0.998960000000     0.984640000000     0.559260000000     0.04037    
H7       H      0.993350000000     0.955990000000     0.429890000000     0.058678   
H8       H      0.071040000000     0.031920000000     0.513120000000     0.0569871  
H9       H      0.000510000000     0.036050000000     0.577800000000     0.0569689  
H10      H      0.995910000000     0.004510000000     0.449740000000     0.0431586  
H11      H      0.030450000000     0.068020000000     0.609090000000     0.032657   
H12      H      0.000770000000     0.915180000000     0.363040000000     0.185657   
H13      H      0.641670000000     0.691080000000     0.556890000000     0.0317711  
H14      H      0.856140000000     0.807140000000     0.463230000000     0.0330892  
H15      H      0.714480000000     0.710740000000     0.488850000000     0.04123    
H16      H      0.784430000000     0.784070000000     0.530120000000     0.0411255  
H17      H      0.825630000000     0.779040000000     0.496990000000     0.0539047  
H18      H      0.753080000000     0.756140000000     0.564330000000     0.0400397  
H19      H      0.753930000000     0.784820000000     0.434280000000     0.0590837  
H20      H      0.672300000000     0.720810000000     0.524030000000     0.0570959  
H21      H      0.746820000000     0.703440000000     0.581260000000     0.056013   
H22      H      0.746260000000     0.737910000000     0.454690000000     0.0431411  
H23      H      0.715560000000     0.673760000000     0.613630000000     0.0299994  
H24      H      0.747080000000     0.825490000000     0.367430000000     0.19282    
H25      H      0.203530000000     0.180250000000     0.616760000000     0.0316634  
H26      H      0.297700000000     0.357300000000     0.457540000000     0.0328041  
H27      H      0.267520000000     0.210170000000     0.544480000000     0.0406183  
H28      H      0.226560000000     0.290930000000     0.482310000000     0.0415707  
H29      H      0.264970000000     0.327810000000     0.487690000000     0.0545611  
H30      H      0.193520000000     0.261170000000     0.512920000000     0.0406401  
H31      H      0.313730000000     0.250230000000     0.463900000000     0.0588869  
H32      H      0.236230000000     0.211790000000     0.588110000000     0.0567649  
H33      H      0.173510000000     0.212120000000     0.515340000000     0.0569103  
H34      H      0.300640000000     0.240760000000     0.515000000000     0.043014   
H35      H      0.141100000000     0.181200000000     0.544940000000     0.0334591  
H36      H      0.370080000000     0.240320000000     0.410620000000     0.185377   
H37      H      0.596030000000     0.583400000000     0.544990000000     0.0316704  
H38      H      0.414260000000     0.407850000000     0.480990000000     0.0345791  
H39      H      0.559080000000     0.500360000000     0.499910000000     0.0406102  
H40      H      0.454780000000     0.486080000000     0.529070000000     0.0422638  
H41      H      0.447120000000     0.435260000000     0.512940000000     0.0549733  
H42      H      0.486570000000     0.516230000000     0.560520000000     0.0410165  
H43      H      0.484260000000     0.477560000000     0.435430000000     0.0589548  
H44      H      0.566050000000     0.551310000000     0.514020000000     0.0567666  
H45      H      0.528170000000     0.513780000000     0.594230000000     0.0571481  
H46      H      0.527130000000     0.470290000000     0.468320000000     0.0444322  
H47      H      0.558030000000     0.546690000000     0.624450000000     0.0349811  
H48      H      0.475390000000     0.461560000000     0.358380000000     0.185334   
H49      H      0.666870000000     0.030510000000     0.159760000000     0.0313366  
H50      H      0.828490000000     0.955260000000     0.353520000000     0.0348156  
H51      H      0.699680000000     0.975110000000     0.238500000000     0.0410585  
H52      H      0.797090000000     0.009980000000     0.273810000000     0.0425345  
H53      H      0.798420000000     0.987510000000     0.323450000000     0.0553267  
H54      H      0.766250000000     0.042670000000     0.243840000000     0.0411726  
H55      H      0.774990000000     0.914820000000     0.266530000000     0.0596355  
H56      H      0.698420000000     0.997970000000     0.188600000000     0.0567783  
H57      H      0.719750000000     0.070120000000     0.247700000000     0.0572509  
H58      H      0.730320000000     0.942530000000     0.268630000000     0.043253   
H59      H      0.688250000000     0.102130000000     0.218090000000     0.0345099  
H60      H      0.801990000000     0.842400000000     0.264290000000     0.187237   
H61      H      0.409250000000     0.340740000000     0.294830000000     0.0321361  
H62      H      0.578190000000     0.153340000000     0.228760000000     0.0343637  
H63      H      0.443220000000     0.258300000000     0.248760000000     0.0412162  
H64      H      0.547730000000     0.238480000000     0.273430000000     0.0428246  
H65      H      0.549330000000     0.185530000000     0.260230000000     0.055095   
H66      H      0.519350000000     0.271720000000     0.305220000000     0.0410827  
H67      H      0.512540000000     0.226290000000     0.181670000000     0.0602934  
H68      H      0.438690000000     0.309420000000     0.262530000000     0.0572801  
H69      H      0.479530000000     0.271550000000     0.341060000000     0.0573742  
H70      H      0.471690000000     0.225290000000     0.216910000000     0.0433523  
H71      H      0.450200000000     0.303730000000     0.372590000000     0.0356473  
H72      H      0.529570000000     0.218370000000     0.105540000000     0.186252   
H73      H      0.304940000000     0.958240000000     0.865680000000     0.0337345  
H74      H      0.179540000000     0.044750000000     0.650060000000     0.0320425  
H75      H      0.228450000000     0.987670000000     0.807550000000     0.0406519  
H76      H      0.260780000000     0.020120000000     0.706420000000     0.041936   
H77      H      0.212520000000     0.015140000000     0.679980000000     0.0542714  
H78      H      0.293660000000     0.990020000000     0.736960000000     0.0404833  
H79      H      0.193010000000     0.068210000000     0.757310000000     0.0594726  
H80      H      0.273470000000     0.989560000000     0.835490000000     0.0576788  
H81      H      0.299210000000     0.941000000000     0.756410000000     0.0560738  
H82      H      0.195870000000     0.018050000000     0.777180000000     0.0430522  
H83      H      0.331100000000     0.910660000000     0.787250000000     0.0310083  
H84      H      0.153440000000     0.134210000000     0.763850000000     0.184546   
H85      H      0.389150000000     0.802240000000     0.810650000000     0.0307334  
H86      H      0.606380000000     0.702160000000     0.705590000000     0.0322232  
H87      H      0.455930000000     0.731880000000     0.785050000000     0.0404968  
H88      H      0.540040000000     0.774700000000     0.729150000000     0.0414533  
H89      H      0.575860000000     0.734700000000     0.734930000000     0.054157   
H90      H      0.509000000000     0.806700000000     0.759720000000     0.0404116  
H91      H      0.498700000000     0.690080000000     0.702830000000     0.0584843  
H92      H      0.419910000000     0.771000000000     0.779610000000     0.0564914  
H93      H      0.496660000000     0.816840000000     0.812150000000     0.0563514  
H94      H      0.486900000000     0.699960000000     0.754590000000     0.0430517  
H95      H      0.465100000000     0.848060000000     0.842570000000     0.0320323  
H96      H      0.491160000000     0.637030000000     0.645400000000     0.184879   
H97      H      0.574790000000     0.100940000000     0.045460000000     0.0331936  
H98      H      0.410750000000     0.911820000000     0.972280000000     0.0332666  
H99      H      0.491600000000     0.060990000000     0.003600000000     0.0417284  
H100     H      0.492860000000     0.952310000000     0.013630000000     0.0416727  
H101     H      0.440970000000     0.941620000000     0.004730000000     0.0544707  
H102     H      0.523800000000     0.982060000000     0.046460000000     0.040386   
H103     H      0.463720000000     0.996840000000     0.929900000000     0.0592429  
H104     H      0.543440000000     0.071980000000     0.012670000000     0.0573026  
H105     H      0.519980000000     0.017010000000     0.087990000000     0.0567575  
H106     H      0.460580000000     0.031270000000     0.970840000000     0.0432785  
H107     H      0.551890000000     0.046200000000     0.120000000000     0.0319357  
H108     H      0.449360000000     0.988810000000     0.852870000000     0.184969   
H109     H      0.936820000000     0.850150000000     0.294270000000     0.03578    
H110     H      0.072120000000     0.642210000000     0.213870000000     0.0338642  
H111     H      0.970190000000     0.779060000000     0.230900000000     0.0420123  
H112     H      0.044600000000     0.715270000000     0.279860000000     0.0419777  
H113     H      0.041710000000     0.672520000000     0.245720000000     0.0553724  
H114     H      0.011920000000     0.745110000000     0.310910000000     0.0407634  
H115     H      0.054380000000     0.745630000000     0.185930000000     0.0593996  
H116     H      0.970280000000     0.821240000000     0.263790000000     0.0581341  
H117     H      0.960780000000     0.748880000000     0.325820000000     0.0568796  
H118     H      0.002920000000     0.749430000000     0.199960000000     0.0442745  
H119     H      0.927880000000     0.778730000000     0.356120000000     0.0324226  
H120     H      0.103560000000     0.753510000000     0.124820000000     0.185627   
H121     H      0.360780000000     0.802190000000     0.951290000000     0.0304647  
H122     H      0.148430000000     0.687540000000     0.051410000000     0.0392552  
H123     H      0.299750000000     0.726530000000     0.977440000000     0.0406331  
H124     H      0.209760000000     0.763350000000     0.027960000000     0.0428202  
H125     H      0.177840000000     0.720130000000     0.021000000000     0.0560124  
H126     H      0.239300000000     0.797070000000     0.997900000000     0.0406332  
H127     H      0.256480000000     0.683530000000     0.059310000000     0.0599701  
H128     H      0.332000000000     0.768800000000     0.982090000000     0.0565817  
H129     H      0.252490000000     0.806870000000     0.946140000000     0.0561728  
H130     H      0.270250000000     0.692860000000     0.007590000000     0.0434766  
H131     H      0.281990000000     0.840280000000     0.916150000000     0.0305714  
H132     H      0.266370000000     0.634060000000     0.118750000000     0.186864   
H133     H      0.298380000000     0.388560000000     0.318200000000     0.0313197  
H134     H      0.196070000000     0.603370000000     0.209450000000     0.0349271  
H135     H      0.225620000000     0.451100000000     0.286480000000     0.0404695  
H136     H      0.268280000000     0.542110000000     0.243100000000     0.0431121  
H137     H      0.224090000000     0.573960000000     0.244270000000     0.0553103  
H138     H      0.298150000000     0.511740000000     0.276220000000     0.0414193  
H139     H      0.196400000000     0.495450000000     0.198670000000     0.0592671  
H140     H      0.267100000000     0.418610000000     0.286400000000     0.0566702  
H141     H      0.303660000000     0.496620000000     0.327230000000     0.0572412  
H142     H      0.195930000000     0.481350000000     0.252830000000     0.0444096  
H143     H      0.335210000000     0.465870000000     0.357910000000     0.0357329  
H144     H      0.141570000000     0.485850000000     0.143080000000     0.185514   
H145     H      0.918610000000     0.352280000000     0.794910000000     0.0303524  
H146     H      0.059400000000     0.148070000000     0.714680000000     0.0411257  
H147     H      0.947610000000     0.276990000000     0.733960000000     0.0406335  
H148     H      0.037410000000     0.227800000000     0.772410000000     0.0424977  
H149     H      0.030950000000     0.179880000000     0.746770000000     0.0558859  
H150     H      0.008920000000     0.259260000000     0.805870000000     0.0402792  
H151     H      0.024100000000     0.243120000000     0.675380000000     0.0594356  
H152     H      0.948650000000     0.323230000000     0.760900000000     0.0563598  
H153     H      0.962270000000     0.259600000000     0.831520000000     0.0562153  
H154     H      0.976300000000     0.245720000000     0.700440000000     0.0431153  
H155     H      0.932740000000     0.289520000000     0.865000000000     0.0311099  
H156     H      0.058290000000     0.245980000000     0.604940000000     0.185463   
H157     H      0.825530000000     0.347340000000     0.981340000000     0.0320291  
H158     H      0.682340000000     0.142530000000     0.056240000000     0.0339167  
H159     H      0.796390000000     0.270370000000     0.040050000000     0.0405739  
H160     H      0.708580000000     0.220640000000     0.997720000000     0.0426323  
H161     H      0.713000000000     0.173040000000     0.024830000000     0.0546871  
H162     H      0.738370000000     0.252100000000     0.965460000000     0.0410835  
H163     H      0.717350000000     0.237960000000     0.094830000000     0.0602616  
H164     H      0.795500000000     0.316730000000     0.013820000000     0.057309   
H165     H      0.785790000000     0.254150000000     0.941560000000     0.0565105  
H166     H      0.766370000000     0.239140000000     0.072340000000     0.043089   
H167     H      0.815260000000     0.285700000000     0.909550000000     0.0323928  
H168     H      0.680080000000     0.243230000000     0.163350000000     0.186483   
H169     H      0.659280000000     0.586580000000     0.731080000000     0.0321351  
H170     H      0.849750000000     0.453320000000     0.829110000000     0.0332175  
H171     H      0.693410000000     0.503420000000     0.776270000000     0.0409413  
H172     H      0.796850000000     0.483150000000     0.747650000000     0.0414081  
H173     H      0.819920000000     0.483590000000     0.796800000000     0.0542476  
H174     H      0.767130000000     0.515510000000     0.716280000000     0.0397905  
H175     H      0.746770000000     0.425120000000     0.810030000000     0.0588209  
H176     H      0.688810000000     0.554290000000     0.762210000000     0.0566644  
H177     H      0.725850000000     0.515470000000     0.682210000000     0.0561391  
H178     H      0.723520000000     0.472240000000     0.808350000000     0.0431363  
H179     H      0.696460000000     0.548680000000     0.651800000000     0.0300599  
H180     H      0.743570000000     0.355790000000     0.845190000000     0.185469   
H181     H      0.891240000000     0.450010000000     0.955580000000     0.0327281  
H182     H      0.110960000000     0.545680000000     0.059720000000     0.0395789  
H183     H      0.961240000000     0.517780000000     0.977810000000     0.040941   
H184     H      0.041910000000     0.475020000000     0.038800000000     0.0427177  
H185     H      0.079890000000     0.513330000000     0.030610000000     0.0561535  
H186     H      0.009730000000     0.442430000000     0.010150000000     0.0404376  
H187     H      0.003880000000     0.562500000000     0.058310000000     0.0601207  
H188     H      0.923060000000     0.481450000000     0.985250000000     0.0571966  
H189     H      0.997570000000     0.428600000000     0.958900000000     0.0560083  
H190     H      0.993260000000     0.550250000000     0.006500000000     0.0436457  
H191     H      0.964910000000     0.397220000000     0.929940000000     0.0301902  
H192     H      0.996160000000     0.618950000000     0.111330000000     0.187656   
In1      In     0.871970000000     0.371060000000     0.888660000000     2.41544    
In2      In     0.130810000000     0.620670000000     0.129640000000     2.43754    
In3      In     0.372230000000     0.879550000000     0.880230000000     2.41707    
In4      In     0.621280000000     0.122180000000     0.138520000000     2.4281     
In5      In     0.375080000000     0.374470000000     0.389630000000     2.4217     
In6      In     0.626050000000     0.624960000000     0.637940000000     2.41716    
In7      In     0.875290000000     0.866540000000     0.378720000000     2.42653    
In8      In     0.116150000000     0.124250000000     0.630600000000     2.42062    
N1       N      0.926590000000     0.922530000000     0.427970000000    -0.180049   
N2       N      0.067400000000     0.068410000000     0.579130000000    -0.195098   
N3       N      0.823220000000     0.812160000000     0.428970000000    -0.179304   
N4       N      0.676490000000     0.680130000000     0.587420000000    -0.195744   
N5       N      0.325000000000     0.321300000000     0.443260000000    -0.179979   
N6       N      0.170060000000     0.178440000000     0.582870000000    -0.194733   
N7       N      0.430030000000     0.426270000000     0.439510000000    -0.179737   
N8       N      0.579030000000     0.567460000000     0.586880000000    -0.194107   
N9       N      0.819290000000     0.916200000000     0.327960000000    -0.178913   
N10      N      0.675270000000     0.068580000000     0.186920000000    -0.194712   
N11      N      0.562570000000     0.171000000000     0.186900000000    -0.179376   
N12      N      0.427540000000     0.324390000000     0.335970000000    -0.193964   
N13      N      0.166980000000     0.073750000000     0.685980000000    -0.179847   
N14      N      0.320180000000     0.932200000000     0.828640000000    -0.19516    
N15      N      0.570670000000     0.676850000000     0.687340000000    -0.180104   
N16      N      0.424930000000     0.827320000000     0.828830000000    -0.195435   
N17      N      0.419360000000     0.936720000000     0.932170000000    -0.179365   
N18      N      0.565660000000     0.075550000000     0.085000000000    -0.193963   
N19      N      0.080780000000     0.675840000000     0.181080000000    -0.179972   
N20      N      0.929980000000     0.816510000000     0.327330000000    -0.193915   
N21      N      0.185000000000     0.666550000000     0.073260000000    -0.178535   
N22      N      0.323450000000     0.823590000000     0.931570000000    -0.19584    
N23      N      0.179640000000     0.566860000000     0.183700000000    -0.178883   
N24      N      0.319150000000     0.425070000000     0.340120000000    -0.194965   
N25      N      0.058720000000     0.176850000000     0.676340000000    -0.17831    
N26      N      0.923530000000     0.322960000000     0.832320000000    -0.195443   
N27      N      0.681610000000     0.172320000000     0.093740000000    -0.179671   
N28      N      0.822490000000     0.318720000000     0.943160000000    -0.194798   
N29      N      0.815900000000     0.421680000000     0.838800000000    -0.179926   
N30      N      0.675780000000     0.569940000000     0.689270000000    -0.195787   
N31      N      0.075790000000     0.572940000000     0.075990000000    -0.178482   
N32      N      0.925820000000     0.421490000000     0.940570000000    -0.195072   
O1       O      0.850460000000     0.360130000000     0.933740000000    -0.499632   
O2       O      0.844520000000     0.329960000000     0.897870000000    -0.49301    
O3       O      0.860440000000     0.412570000000     0.862240000000    -0.498692   
O4       O      0.880480000000     0.409090000000     0.920940000000    -0.492116   
O5       O      0.901630000000     0.331970000000     0.878200000000    -0.497582   
O6       O      0.916900000000     0.382450000000     0.908580000000    -0.503408   
O7       O      0.828160000000     0.379230000000     0.865020000000    -0.490135   
O8       O      0.893920000000     0.362880000000     0.843240000000    -0.504327   
O9       O      0.099990000000     0.630150000000     0.169060000000    -0.499647   
O10      O      0.114140000000     0.666220000000     0.142820000000    -0.490305   
O11      O      0.144580000000     0.575420000000     0.146740000000    -0.487789   
O12      O      0.122040000000     0.587340000000     0.092170000000    -0.486596   
O13      O      0.139370000000     0.649630000000     0.088580000000    -0.489697   
O14      O      0.085360000000     0.606170000000     0.114270000000    -0.487912   
O15      O      0.164360000000     0.612630000000     0.166910000000    -0.495945   
O16      O      0.176040000000     0.636890000000     0.114710000000    -0.484176   
O17      O      0.353490000000     0.894350000000     0.835040000000    -0.500477   
O18      O      0.339390000000     0.917090000000     0.874110000000    -0.496045   
O19      O      0.417300000000     0.865020000000     0.862800000000    -0.498552   
O20      O      0.387840000000     0.897230000000     0.925500000000    -0.501309   
O21      O      0.328460000000     0.861340000000     0.897210000000    -0.504063   
O22      O      0.403900000000     0.918020000000     0.886240000000    -0.484125   
O23      O      0.379690000000     0.842170000000     0.846860000000    -0.501482   
O24      O      0.367630000000     0.842220000000     0.914340000000    -0.500449   
O25      O      0.587210000000     0.158740000000     0.143010000000    -0.487786   
O26      O      0.596770000000     0.133580000000     0.181790000000    -0.499353   
O27      O      0.599140000000     0.112870000000     0.093520000000    -0.493575   
O28      O      0.654660000000     0.129690000000     0.100940000000    -0.500206   
O29      O      0.653200000000     0.113360000000     0.177180000000    -0.493849   
O30      O      0.647890000000     0.164260000000     0.131980000000    -0.486823   
O31      O      0.587550000000     0.085820000000     0.130650000000    -0.498511   
O32      O      0.643140000000     0.077910000000     0.147900000000    -0.501142   
O33      O      0.339340000000     0.366820000000     0.424970000000    -0.49901    
O34      O      0.360380000000     0.329480000000     0.406610000000    -0.488607   
O35      O      0.391050000000     0.358930000000     0.343680000000    -0.498529   
O36      O      0.337270000000     0.380230000000     0.356200000000    -0.498845   
O37      O      0.391820000000     0.393030000000     0.434120000000    -0.49971    
O38      O      0.356590000000     0.418760000000     0.374530000000    -0.497895   
O39      O      0.412060000000     0.341250000000     0.382320000000    -0.489482   
O40      O      0.413620000000     0.406370000000     0.394440000000    -0.486481   
O41      O      0.593480000000     0.587130000000     0.632400000000    -0.491026   
O42      O      0.612710000000     0.605040000000     0.592910000000    -0.495859   
O43      O      0.616910000000     0.660600000000     0.673090000000    -0.500224   
O44      O      0.641280000000     0.606690000000     0.683060000000    -0.500228   
O45      O      0.632350000000     0.658210000000     0.600000000000    -0.49898    
O46      O      0.660370000000     0.588620000000     0.643630000000    -0.502788   
O47      O      0.580520000000     0.642130000000     0.650440000000    -0.489036   
O48      O      0.669490000000     0.647850000000     0.626860000000    -0.504436   
O49      O      0.867470000000     0.835340000000     0.418390000000    -0.494519   
O50      O      0.831930000000     0.843680000000     0.388980000000    -0.48735    
O51      O      0.918060000000     0.891050000000     0.387870000000    -0.494212   
O52      O      0.904160000000     0.859100000000     0.337520000000    -0.487807   
O53      O      0.849860000000     0.908780000000     0.368890000000    -0.499698   
O54      O      0.900210000000     0.823950000000     0.368710000000    -0.498963   
O55      O      0.883440000000     0.896840000000     0.418970000000    -0.497539   
O56      O      0.846080000000     0.873780000000     0.337760000000    -0.47623    
O57      O      0.158500000000     0.150760000000     0.624790000000    -0.503564   
O58      O      0.127210000000     0.151950000000     0.589390000000    -0.491779   
O59      O      0.140400000000     0.115840000000     0.674540000000    -0.482909   
O60      O      0.084750000000     0.133670000000     0.669310000000    -0.484686   
O61      O      0.109520000000     0.094910000000     0.589500000000    -0.495387   
O62      O      0.090040000000     0.166840000000     0.636410000000    -0.487832   
O63      O      0.143310000000     0.083090000000     0.640900000000    -0.504695   
O64      O      0.074530000000     0.097670000000     0.620920000000    -0.500138   
O65      O      0.992770000000     0.917850000000     0.383000000000    -0.332329   
O66      O      0.949840000000     0.934270000000     0.365680000000    -0.22239    
O67      O      0.755650000000     0.822130000000     0.387030000000    -0.330216   
O68      O      0.796510000000     0.802670000000     0.367900000000    -0.211653   
O69      O      0.353190000000     0.250870000000     0.418270000000    -0.332192   
O70      O      0.380760000000     0.285760000000     0.439270000000    -0.220608   
O71      O      0.474850000000     0.455740000000     0.379280000000    -0.332114   
O72      O      0.426310000000     0.461600000000     0.382470000000    -0.219063   
O73      O      0.804050000000     0.863050000000     0.269150000000    -0.329799   
O74      O      0.794630000000     0.855760000000     0.317680000000    -0.209225   
O75      O      0.534330000000     0.217400000000     0.126710000000    -0.330598   
O76      O      0.532010000000     0.168470000000     0.127660000000    -0.225662   
O77      O      0.164890000000     0.120170000000     0.752430000000    -0.331398   
O78      O      0.125370000000     0.101560000000     0.729820000000    -0.221147   
O79      O      0.501750000000     0.653060000000     0.654770000000    -0.331876   
O80      O      0.533040000000     0.622920000000     0.677900000000    -0.220495   
O81      O      0.451960000000     0.980890000000     0.872870000000    -0.33187    
O82      O      0.403780000000     0.975640000000     0.880150000000    -0.224084   
O83      O      0.097950000000     0.744250000000     0.143540000000    -0.330442   
O84      O      0.077870000000     0.705660000000     0.120490000000    -0.21359    
O85      O      0.255270000000     0.648840000000     0.107970000000    -0.330824   
O86      O      0.223980000000     0.615930000000     0.089200000000    -0.219446   
O87      O      0.149990000000     0.496880000000     0.159560000000    -0.331565   
O88      O      0.172990000000     0.528150000000     0.129020000000    -0.215407   
O89      O      0.057190000000     0.239690000000     0.625670000000    -0.33262    
O90      O      0.044080000000     0.194060000000     0.613310000000    -0.223668   
O91      O      0.682050000000     0.236410000000     0.142860000000    -0.330429   
O92      O      0.693340000000     0.190780000000     0.156980000000    -0.223496   
O93      O      0.754290000000     0.371240000000     0.835010000000    -0.332141   
O94      O      0.772560000000     0.389150000000     0.877680000000    -0.224777   
O95      O      0.006150000000     0.601940000000     0.103160000000    -0.330312   
O96      O      0.041830000000     0.628980000000     0.082870000000    -0.216366   


