data_structure

_audit_creation_method RASPA-1.0
_audit_creation_date 2023-5-22
_audit_author_name 'Poobodin Mano'

_cell_length_a    47.0757
_cell_length_b    43.8954
_cell_length_c    44.5555
_cell_angle_alpha 90
_cell_angle_beta  90
_cell_angle_gamma 90
_cell_volume      92069.8

_symmetry_cell_setting          triclinic
_symmetry_space_group_name_Hall 'P 1'
_symmetry_space_group_name_H-M  'P 1'
_symmetry_Int_Tables_number     1

_symmetry_equiv_pos_as_xyz 'x,y,z'

loop_
_atom_site_label
_atom_site_type_symbol
_atom_site_fract_x
_atom_site_fract_y
_atom_site_fract_z
_atom_site_charge
C1       C      0.890740000000     0.425090000000     0.916680000000     0.411526   
C2       C      0.815110000000     0.357960000000     0.915700000000     0.417965   
C3       C      0.817690000000     0.425120000000     0.851150000000     0.410762   
C4       C      0.890570000000     0.355170000000     0.853680000000     0.417729   
C5       C      0.072240000000     0.608300000000     0.094730000000     0.420555   
C6       C      0.136160000000     0.603380000000     0.167710000000     0.418788   
C7       C      0.142130000000     0.675600000000     0.099450000000     0.415363   
C8       C      0.072450000000     0.677970000000     0.166900000000     0.42208    
C9       C      0.324200000000     0.855650000000     0.918940000000     0.426279   
C10      C      0.323470000000     0.926970000000     0.845780000000     0.411383   
C11      C      0.391060000000     0.925770000000     0.916290000000     0.414708   
C12      C      0.389560000000     0.858270000000     0.845000000000     0.421323   
C13      C      0.636760000000     0.176990000000     0.099150000000     0.411687   
C14      C      0.570380000000     0.175450000000     0.170500000000     0.417695   
C15      C      0.569120000000     0.108110000000     0.098920000000     0.410971   
C16      C      0.637940000000     0.104250000000     0.167680000000     0.421446   
C17      C      0.316540000000     0.423720000000     0.350520000000     0.411016   
C18      C      0.391360000000     0.356190000000     0.353570000000     0.417745   
C19      C      0.390870000000     0.425500000000     0.415710000000     0.41021    
C20      C      0.316510000000     0.358400000000     0.417280000000     0.410046   
C21      C      0.638330000000     0.607840000000     0.670250000000     0.419815   
C22      C      0.570250000000     0.675110000000     0.666070000000     0.413255   
C23      C      0.643090000000     0.673590000000     0.598800000000     0.415443   
C24      C      0.573410000000     0.607590000000     0.593470000000     0.418897   
C25      C      0.887110000000     0.856900000000     0.344440000000     0.413162   
C26      C      0.887770000000     0.925000000000     0.420610000000     0.416592   
C27      C      0.823640000000     0.924670000000     0.344370000000     0.413766   
C28      C      0.822810000000     0.857890000000     0.419820000000     0.411142   
C29      C      0.067580000000     0.174080000000     0.668760000000     0.410238   
C30      C      0.141730000000     0.106350000000     0.664320000000     0.418045   
C31      C      0.065400000000     0.109990000000     0.600860000000     0.417059   
C32      C      0.140440000000     0.176520000000     0.602440000000     0.416567   
C33      C      0.017430000000     0.084990000000     0.539680000000    -0.133077   
C34      C      0.932990000000     0.938670000000     0.440010000000     0.0748745  
C35      C      0.891600000000     0.963720000000     0.457670000000     0.075141   
C36      C      0.950010000000     0.956570000000     0.458650000000    -0.0944793  
C37      C      0.978920000000     0.986210000000     0.512090000000    -0.0371775  
C38      C      0.996210000000     0.004910000000     0.529720000000    -0.0323876  
C39      C      0.955500000000     0.998400000000     0.496610000000    -0.00584709 
C40      C      0.908000000000     0.982040000000     0.476580000000    -0.0945422  
C41      C      0.990520000000     0.036250000000     0.532250000000    -0.014186   
C42      C      0.019880000000     0.046700000000     0.578010000000    -0.105371   
C43      C      0.966930000000     0.048380000000     0.517020000000    -0.0324045  
C44      C      0.038140000000     0.065430000000     0.594290000000     0.0773372  
C45      C      0.035820000000     0.103690000000     0.556450000000     0.1536     
C46      C      0.949620000000     0.029670000000     0.499430000000    -0.0371867  
C47      C      0.937600000000     0.978680000000     0.477160000000     0.0497782  
C48      C      0.009430000000     0.056280000000     0.550290000000     0.0660858  
C49      C      0.043070000000     0.134510000000     0.543220000000    -0.218413   
C50      C      0.708580000000     0.702160000000     0.562140000000    -0.132704   
C51      C      0.777330000000     0.846270000000     0.439800000000     0.075032   
C52      C      0.817390000000     0.817100000000     0.454430000000     0.0749902  
C53      C      0.759620000000     0.828360000000     0.457690000000    -0.0943132  
C54      C      0.725270000000     0.775730000000     0.482430000000    -0.0371293  
C55      C      0.707630000000     0.757280000000     0.499920000000    -0.0324626  
C56      C      0.752300000000     0.784360000000     0.492860000000    -0.00575723 
C57      C      0.800290000000     0.798670000000     0.472530000000    -0.0942383  
C58      C      0.716620000000     0.746940000000     0.528210000000    -0.0142473  
C59      C      0.668890000000     0.733900000000     0.549350000000    -0.105407   
C60      C      0.743670000000     0.755450000000     0.538620000000    -0.0324551  
C61      C      0.651470000000     0.715450000000     0.566890000000     0.0777779  
C62      C      0.690670000000     0.683670000000     0.579740000000     0.152138   
C63      C      0.761300000000     0.773980000000     0.521160000000    -0.0373401  
C64      C      0.770980000000     0.804070000000     0.474220000000     0.0496244  
C65      C      0.697790000000     0.727410000000     0.546810000000     0.0658471  
C66      C      0.704310000000     0.656890000000     0.595600000000    -0.217316   
C67      C      0.186070000000     0.240300000000     0.577060000000    -0.133346   
C68      C      0.289230000000     0.313470000000     0.424550000000     0.0741978  
C69      C      0.289990000000     0.351710000000     0.462130000000     0.0745189  
C70      C      0.271560000000     0.295320000000     0.442270000000    -0.0947215  
C71      C      0.249230000000     0.254550000000     0.491940000000    -0.0372184  
C72      C      0.232360000000     0.236460000000     0.510620000000    -0.0325751  
C73      C      0.244790000000     0.286180000000     0.490210000000    -0.00594189 
C74      C      0.272360000000     0.334150000000     0.480460000000    -0.094475   
C75      C      0.210710000000     0.249600000000     0.528060000000    -0.0143755  
C76      C      0.182660000000     0.202300000000     0.538520000000    -0.105501   
C77      C      0.206180000000     0.281200000000     0.526240000000    -0.0325053  
C78      C      0.165560000000     0.184900000000     0.557420000000     0.0770709  
C79      C      0.168940000000     0.222340000000     0.595980000000     0.153689   
C80      C      0.223000000000     0.299270000000     0.507520000000    -0.0373169  
C81      C      0.263030000000     0.305490000000     0.470700000000     0.0494697  
C82      C      0.192930000000     0.230460000000     0.548130000000     0.0660966  
C83      C      0.163020000000     0.234710000000     0.627090000000    -0.218602   
C84      C      0.533350000000     0.581150000000     0.526740000000    -0.13262    
C85      C      0.417130000000     0.434300000000     0.460370000000     0.0744133  
C86      C      0.420440000000     0.469180000000     0.419880000000     0.0745178  
C87      C      0.435800000000     0.451950000000     0.477390000000    -0.0944674  
C88      C      0.487690000000     0.484810000000     0.501540000000    -0.0371196  
C89      C      0.505700000000     0.502890000000     0.518980000000    -0.0325157  
C90      C      0.466610000000     0.498200000000     0.483490000000    -0.00585072 
C91      C      0.439160000000     0.487410000000     0.436300000000    -0.0943617  
C92      C      0.503070000000     0.534790000000     0.518770000000    -0.0140284  
C93      C      0.528340000000     0.545380000000     0.567110000000    -0.105018   
C94      C      0.482140000000     0.548200000000     0.500550000000    -0.0324154  
C95      C      0.545670000000     0.563770000000     0.584810000000     0.0780949  
C96      C      0.550920000000     0.599450000000     0.544890000000     0.152482   
C97      C      0.464120000000     0.530110000000     0.483110000000    -0.0371504  
C98      C      0.447030000000     0.478920000000     0.465460000000     0.0495643  
C99      C      0.521880000000     0.554000000000     0.537770000000     0.0659948  
C100     C      0.562600000000     0.628290000000     0.530880000000    -0.217597   
C101     C      0.668380000000     0.037600000000     0.207340000000    -0.13323    
C102     C      0.811840000000     0.972290000000     0.322330000000     0.0753806  
C103     C      0.784310000000     0.928500000000     0.311200000000     0.0756881  
C104     C      0.794280000000     0.990240000000     0.304270000000    -0.0942394  
C105     C      0.744210000000     0.025800000000     0.279990000000    -0.0368544  
C106     C      0.725610000000     0.043430000000     0.262800000000    -0.0323806  
C107     C      0.751460000000     0.996060000000     0.271000000000    -0.00577814 
C108     C      0.766200000000     0.945800000000     0.293130000000    -0.0944295  
C109     C      0.713630000000     0.031680000000     0.236350000000    -0.0141561  
C110     C      0.699380000000     0.080730000000     0.212070000000    -0.10523    
C111     C      0.720850000000     0.002020000000     0.227290000000    -0.0325785  
C112     C      0.680380000000     0.097840000000     0.195030000000     0.0778391  
C113     C      0.649310000000     0.055250000000     0.190300000000     0.154288   
C114     C      0.739620000000     0.984450000000     0.244350000000    -0.0370223  
C115     C      0.770950000000     0.977120000000     0.289570000000     0.0498866  
C116     C      0.693540000000     0.050260000000     0.218340000000     0.0664901  
C117     C      0.622730000000     0.039490000000     0.179090000000    -0.218677   
C118     C      0.439610000000     0.293650000000     0.330660000000    -0.132951   
C119     C      0.541870000000     0.219410000000     0.177910000000     0.0763475  
C120     C      0.548000000000     0.183980000000     0.217570000000     0.0751589  
C121     C      0.524510000000     0.237490000000     0.196020000000    -0.094832   
C122     C      0.475540000000     0.261320000000     0.233410000000    -0.0368781  
C123     C      0.458130000000     0.279230000000     0.251660000000    -0.0322698  
C124     C      0.500140000000     0.247580000000     0.245110000000    -0.00591883 
C125     C      0.530730000000     0.201530000000     0.236310000000    -0.094771   
C126     C      0.464880000000     0.283810000000     0.282060000000    -0.0140165  
C127     C      0.434840000000     0.330030000000     0.290790000000    -0.104869   
C128     C      0.489450000000     0.270040000000     0.293790000000    -0.0324204  
C129     C      0.416980000000     0.347300000000     0.308980000000     0.078264   
C130     C      0.421570000000     0.311420000000     0.348810000000     0.154233   
C131     C      0.506890000000     0.252140000000     0.275520000000    -0.0371136  
C132     C      0.518700000000     0.228640000000     0.225600000000     0.0501692  
C133     C      0.446250000000     0.302780000000     0.301440000000     0.0664178  
C134     C      0.415800000000     0.299810000000     0.380240000000    -0.218582   
C135     C      0.189430000000     0.043340000000     0.687300000000    -0.132976   
C136     C      0.298750000000     0.973270000000     0.836710000000     0.0735641  
C137     C      0.298040000000     0.933910000000     0.800270000000     0.0744313  
C138     C      0.281400000000     0.991440000000     0.818630000000    -0.0941731  
C139     C      0.257400000000     0.030980000000     0.768720000000    -0.0372322  
C140     C      0.239540000000     0.048580000000     0.750610000000    -0.0325581  
C141     C      0.253210000000     0.999360000000     0.771350000000    -0.005875   
C142     C      0.280740000000     0.951470000000     0.781610000000    -0.0947104  
C143     C      0.217120000000     0.034970000000     0.734660000000    -0.0141851  
C144     C      0.187920000000     0.081740000000     0.725580000000    -0.105112   
C145     C      0.212950000000     0.003380000000     0.737250000000    -0.0324483  
C146     C      0.169430000000     0.098650000000     0.707730000000     0.0775543  
C147     C      0.170870000000     0.060790000000     0.669440000000     0.153504   
C148     C      0.230750000000     0.985790000000     0.755400000000    -0.0372292  
C149     C      0.272070000000     0.980590000000     0.790730000000     0.0493026  
C150     C      0.197980000000     0.053650000000     0.715560000000     0.0661302  
C151     C      0.163010000000     0.047870000000     0.639030000000    -0.218524   
C152     C      0.447270000000     0.835030000000     0.793350000000    -0.1338     
C153     C      0.528100000000     0.680100000000     0.695020000000     0.0733564  
C154     C      0.558940000000     0.722370000000     0.689020000000     0.0739319  
C155     C      0.509870000000     0.697470000000     0.712890000000    -0.0944956  
C156     C      0.467440000000     0.743850000000     0.736190000000    -0.0371914  
C157     C      0.449600000000     0.762000000000     0.753800000000    -0.0325768  
C158     C      0.497150000000     0.747030000000     0.737940000000    -0.00604287 
C159     C      0.541090000000     0.740450000000     0.706580000000    -0.0946874  
C160     C      0.461050000000     0.783900000000     0.773340000000    -0.0145952  
C161     C      0.419340000000     0.791570000000     0.807340000000    -0.105555   
C162     C      0.490690000000     0.786980000000     0.775260000000    -0.0327749  
C163     C      0.402310000000     0.810490000000     0.824890000000     0.0777573  
C164     C      0.429780000000     0.853870000000     0.810990000000     0.154155   
C165     C      0.508530000000     0.768690000000     0.757870000000    -0.0374978  
C166     C      0.516230000000     0.728080000000     0.718910000000     0.0489702  
C167     C      0.442220000000     0.803740000000     0.791520000000     0.0664023  
C168     C      0.437290000000     0.887420000000     0.812020000000    -0.216913   
C169     C      0.455330000000     0.958600000000     0.951710000000    -0.132742   
C170     C      0.522780000000     0.096180000000     0.081330000000     0.0741177  
C171     C      0.562630000000     0.069090000000     0.062660000000     0.0749987  
C172     C      0.504550000000     0.079010000000     0.063270000000    -0.0945648  
C173     C      0.470610000000     0.026760000000     0.036070000000    -0.0372063  
C174     C      0.453120000000     0.008660000000     0.018040000000    -0.0327513  
C175     C      0.496630000000     0.037820000000     0.025040000000    -0.00622124 
C176     C      0.545040000000     0.051570000000     0.044260000000    -0.0950698  
C177     C      0.461250000000     0.001220000000     0.988570000000    -0.0141363  
C178     C      0.413660000000     0.984450000000     0.969360000000    -0.1048     
C179     C      0.487080000000     0.012650000000     0.977430000000    -0.0327293  
C180     C      0.397090000000     0.965510000000     0.951350000000     0.0768251  
C181     C      0.438320000000     0.939660000000     0.933650000000     0.151735   
C182     C      0.504570000000     0.030700000000     0.995460000000    -0.0373291  
C183     C      0.515620000000     0.056390000000     0.044410000000     0.0495737  
C184     C      0.443140000000     0.981210000000     0.969630000000     0.0654682  
C185     C      0.453580000000     0.915870000000     0.914990000000    -0.215576   
C186     C      0.044060000000     0.723930000000     0.229910000000    -0.133205   
C187     C      0.921090000000     0.853140000000     0.305180000000     0.0752176  
C188     C      0.903560000000     0.808360000000     0.328510000000     0.0747433  
C189     C      0.938950000000     0.835780000000     0.286890000000    -0.0945181  
C190     C      0.962980000000     0.791500000000     0.240630000000    -0.0371683  
C191     C      0.981760000000     0.774030000000     0.223460000000    -0.0323685  
C192     C      0.959040000000     0.785250000000     0.271300000000    -0.00594637 
C193     C      0.921260000000     0.790330000000     0.310700000000    -0.0944716  
C194     C      0.997170000000     0.750080000000     0.236640000000    -0.01438    
C195     C      0.010010000000     0.721550000000     0.189920000000    -0.105382   
C196     C      0.993190000000     0.743820000000     0.267290000000    -0.0323827  
C197     C      0.028990000000     0.703820000000     0.173450000000     0.0772324  
C198     C      0.063070000000     0.706130000000     0.212930000000     0.153516   
C199     C      0.974300000000     0.761150000000     0.284400000000    -0.0372821  
C200     C      0.939380000000     0.804000000000     0.289710000000     0.0498232  
C201     C      0.017360000000     0.731670000000     0.218540000000     0.0661512  
C202     C      0.091460000000     0.698810000000     0.227200000000    -0.217926   
C203     C      0.300290000000     0.806270000000     0.981540000000    -0.132696   
C204     C      0.173840000000     0.680280000000     0.058270000000     0.0751867  
C205     C      0.165030000000     0.722830000000     0.089720000000     0.0740599  
C206     C      0.192180000000     0.697620000000     0.040510000000    -0.0952942  
C207     C      0.215600000000     0.744710000000     0.997150000000    -0.0369417  
C208     C      0.233590000000     0.762460000000     0.979360000000    -0.0326175  
C209     C      0.216260000000     0.747170000000     0.028600000000    -0.00627642 
C210     C      0.183300000000     0.740820000000     0.072490000000    -0.0948903  
C211     C      0.252740000000     0.783030000000     0.992610000000    -0.0140485  
C212     C      0.261760000000     0.815710000000     0.947560000000    -0.105119   
C213     C      0.253440000000     0.785460000000     0.024070000000    -0.0326308  
C214     C      0.279870000000     0.833390000000     0.930020000000     0.0779763  
C215     C      0.318360000000     0.824170000000     0.963540000000     0.153511   
C216     C      0.235370000000     0.767770000000     0.041860000000    -0.0371959  
C217     C      0.197060000000     0.728310000000     0.047470000000     0.0496881  
C218     C      0.271840000000     0.801920000000     0.973660000000     0.0660881  
C219     C      0.348840000000     0.827570000000     0.973890000000    -0.217948   
C220     C      0.157940000000     0.548950000000     0.227040000000    -0.133046   
C221     C      0.288850000000     0.429060000000     0.306270000000     0.0746819  
C222     C      0.289090000000     0.468440000000     0.342700000000     0.0746572  
C223     C      0.270480000000     0.445920000000     0.288110000000    -0.094272   
C224     C      0.246150000000     0.494350000000     0.246830000000    -0.0370378  
C225     C      0.228330000000     0.511960000000     0.228700000000    -0.0323084  
C226     C      0.242080000000     0.493270000000     0.278080000000    -0.00581323 
C227     C      0.270710000000     0.485910000000     0.325100000000    -0.0942993  
C228     C      0.206000000000     0.528900000000     0.241370000000    -0.0142121  
C229     C      0.198540000000     0.565210000000     0.198730000000    -0.105035   
C230     C      0.201860000000     0.527730000000     0.272610000000    -0.0324399  
C231     C      0.180790000000     0.583180000000     0.181070000000     0.0772929  
C232     C      0.140260000000     0.567190000000     0.208930000000     0.153665   
C233     C      0.219690000000     0.510140000000     0.290740000000    -0.0373398  
C234     C      0.261240000000     0.474780000000     0.297370000000     0.0495778  
C235     C      0.187250000000     0.547900000000     0.222110000000     0.0659701  
C236     C      0.108760000000     0.566680000000     0.215860000000    -0.218155   
C237     C      0.934410000000     0.289900000000     0.828420000000    -0.132953   
C238     C      0.041490000000     0.219510000000     0.677520000000     0.0739441  
C239     C      0.040850000000     0.179840000000     0.713640000000     0.074194   
C240     C      0.024100000000     0.237480000000     0.695700000000    -0.0951664  
C241     C      0.002350000000     0.276710000000     0.746900000000    -0.0372683  
C242     C      0.985310000000     0.294640000000     0.765550000000    -0.0324752  
C243     C      0.996770000000     0.245450000000     0.743390000000    -0.00599884 
C244     C      0.023370000000     0.197160000000     0.732360000000    -0.0946797  
C245     C      0.962270000000     0.281730000000     0.781090000000    -0.0141779  
C246     C      0.936000000000     0.330110000000     0.791990000000    -0.104919   
C247     C      0.956710000000     0.250460000000     0.777570000000    -0.0324189  
C248     C      0.918510000000     0.347570000000     0.810430000000     0.0776366  
C249     C      0.916820000000     0.307870000000     0.846850000000     0.153154   
C250     C      0.973780000000     0.232520000000     0.758970000000    -0.0374312  
C251     C      0.014910000000     0.226430000000     0.723550000000     0.0494838  
C252     C      0.944010000000     0.300850000000     0.800760000000     0.0660158  
C253     C      0.907800000000     0.294220000000     0.876580000000    -0.217586   
C254     C      0.763330000000     0.298760000000     0.938560000000    -0.132807   
C255     C      0.667290000000     0.219660000000     0.093300000000     0.0754219  
C256     C      0.656170000000     0.188670000000     0.051310000000     0.0741641  
C257     C      0.684370000000     0.238290000000     0.075430000000    -0.0944763  
C258     C      0.732010000000     0.262230000000     0.036010000000    -0.0370084  
C259     C      0.749350000000     0.280180000000     0.017710000000    -0.032464   
C260     C      0.705740000000     0.251410000000     0.025430000000    -0.00594811 
C261     C      0.673070000000     0.206820000000     0.032780000000    -0.094425   
C262     C      0.740850000000     0.287720000000     0.988390000000    -0.0140178  
C263     C      0.773980000000     0.331560000000     0.980150000000    -0.104942   
C264     C      0.714510000000     0.277050000000     0.977860000000    -0.0325561  
C265     C      0.791930000000     0.348370000000     0.961630000000     0.0778815  
C266     C      0.781500000000     0.316050000000     0.920110000000     0.153086   
C267     C      0.697160000000     0.259110000000     0.996170000000    -0.0371194  
C268     C      0.687470000000     0.231980000000     0.044770000000     0.0497386  
C269     C      0.759560000000     0.306330000000     0.968770000000     0.0660301  
C270     C      0.784050000000     0.306230000000     0.887630000000    -0.217415   
C271     C      0.678050000000     0.580760000000     0.736960000000    -0.132944   
C272     C      0.794720000000     0.435050000000     0.804730000000     0.0744192  
C273     C      0.786850000000     0.467680000000     0.846320000000     0.0744921  
C274     C      0.776800000000     0.452790000000     0.786890000000    -0.0946259  
C275     C      0.751960000000     0.504460000000     0.750170000000    -0.0372871  
C276     C      0.734290000000     0.522640000000     0.732460000000    -0.0324775  
C277     C      0.744830000000     0.498060000000     0.780170000000    -0.00590028 
C278     C      0.768820000000     0.485950000000     0.829120000000    -0.0944368  
C279     C      0.709110000000     0.534930000000     0.744330000000    -0.0143903  
C280     C      0.684640000000     0.546310000000     0.695740000000    -0.105709   
C281     C      0.702000000000     0.528600000000     0.774330000000    -0.0324121  
C282     C      0.667120000000     0.564680000000     0.678220000000     0.0783229  
C283     C      0.660380000000     0.599100000000     0.718950000000     0.15276    
C284     C      0.719640000000     0.510360000000     0.792040000000    -0.0373995  
C285     C      0.763660000000     0.478680000000     0.798980000000     0.0494642  
C286     C      0.690340000000     0.554240000000     0.725430000000     0.0661067  
C287     C      0.647900000000     0.627300000000     0.733450000000    -0.217565   
C288     C      0.026480000000     0.584000000000     0.031410000000    -0.1332     
C289     C      0.920220000000     0.431400000000     0.959510000000     0.074311   
C290     C      0.916230000000     0.471220000000     0.923780000000     0.0746366  
C291     C      0.938590000000     0.449060000000     0.976940000000    -0.0945475  
C292     C      0.989130000000     0.485500000000     0.999940000000    -0.0371184  
C293     C      0.006970000000     0.503740000000     0.017430000000    -0.0324846  
C294     C      0.964860000000     0.497930000000     0.986220000000    -0.00590424 
C295     C      0.934450000000     0.489530000000     0.940700000000    -0.0945356  
C296     C      0.000940000000     0.534830000000     0.021650000000    -0.0142203  
C297     C      0.031420000000     0.543340000000     0.067010000000    -0.105202   
C298     C      0.976620000000     0.547210000000     0.007960000000    -0.0323575  
C299     C      0.048880000000     0.561970000000     0.084350000000     0.0773669  
C300     C      0.044190000000     0.602530000000     0.049170000000     0.154642   
C301     C      0.958820000000     0.528990000000     0.990430000000    -0.0372076  
C302     C      0.945810000000     0.478570000000     0.967690000000     0.0496286  
C303     C      0.019880000000     0.554280000000     0.040270000000     0.06627    
C304     C      0.050440000000     0.634240000000     0.037480000000    -0.218752   
H1       H      0.868770000000     0.967030000000     0.457810000000     0.0280265  
H2       H      0.045700000000     0.056680000000     0.615620000000     0.0270733  
H3       H      0.931910000000     0.039840000000     0.487580000000     0.0379571  
H4       H      0.014350000000     0.994890000000     0.540950000000     0.0361632  
H5       H      0.013890000000     0.024810000000     0.587280000000     0.0551542  
H6       H      0.983860000000     0.962160000000     0.510680000000     0.0378165  
H7       H      0.009700000000     0.092630000000     0.518030000000     0.0610199  
H8       H      0.897480000000     0.998570000000     0.490800000000     0.0531577  
H9       H      0.972830000000     0.953450000000     0.458090000000     0.053142   
H10      H      0.961780000000     0.072360000000     0.518770000000     0.0357687  
H11      H      0.943430000000     0.921990000000     0.425850000000     0.0281619  
H12      H      0.066100000000     0.135660000000     0.537930000000     0.0923422  
H13      H      0.031440000000     0.139000000000     0.521980000000     0.0707636  
H14      H      0.037000000000     0.152910000000     0.559080000000     0.0892264  
H15      H      0.839920000000     0.812030000000     0.453490000000     0.0286264  
H16      H      0.629200000000     0.721690000000     0.568050000000     0.0281075  
H17      H      0.781800000000     0.780550000000     0.530070000000     0.0376341  
H18      H      0.687080000000     0.750750000000     0.491070000000     0.0361107  
H19      H      0.659730000000     0.753450000000     0.538110000000     0.0552555  
H20      H      0.717850000000     0.782860000000     0.460520000000     0.0380107  
H21      H      0.730940000000     0.696640000000     0.560070000000     0.0605888  
H22      H      0.809950000000     0.779960000000     0.484650000000     0.0528336  
H23      H      0.737180000000     0.833700000000     0.458700000000     0.0531068  
H24      H      0.751050000000     0.748200000000     0.560510000000     0.0357526  
H25      H      0.767690000000     0.864780000000     0.427290000000     0.0290922  
H26      H      0.694940000000     0.635220000000     0.587410000000     0.0899834  
H27      H      0.727540000000     0.655560000000     0.591380000000     0.0700896  
H28      H      0.701530000000     0.659100000000     0.620250000000     0.0884651  
H29      H      0.296980000000     0.373620000000     0.470620000000     0.028844   
H30      H      0.157900000000     0.163390000000     0.548570000000     0.0263994  
H31      H      0.218690000000     0.323480000000     0.506360000000     0.0375779  
H32      H      0.236610000000     0.212240000000     0.511810000000     0.0359682  
H33      H      0.187330000000     0.193910000000     0.516190000000     0.054824   
H34      H      0.266110000000     0.243790000000     0.479290000000     0.0375806  
H35      H      0.194390000000     0.261850000000     0.585040000000     0.0609377  
H36      H      0.266580000000     0.342770000000     0.502400000000     0.0528418  
H37      H      0.264500000000     0.273550000000     0.433620000000     0.0526522  
H38      H      0.189360000000     0.291930000000     0.539030000000     0.0359062  
H39      H      0.295470000000     0.304750000000     0.402750000000     0.0274998  
H40      H      0.170320000000     0.218240000000     0.644360000000     0.0894272  
H41      H      0.174450000000     0.256400000000     0.631470000000     0.0707196  
H42      H      0.139990000000     0.239510000000     0.629690000000     0.0925879  
H43      H      0.414860000000     0.476500000000     0.397390000000     0.0284114  
H44      H      0.549760000000     0.555990000000     0.607510000000     0.028478   
H45      H      0.447840000000     0.541130000000     0.469800000000     0.0380191  
H46      H      0.521900000000     0.491880000000     0.532410000000     0.0363533  
H47      H      0.519660000000     0.524690000000     0.576670000000     0.0555896  
H48      H      0.490480000000     0.460320000000     0.501980000000     0.0376338  
H49      H      0.528890000000     0.587890000000     0.503810000000     0.0606289  
H50      H      0.447610000000     0.507870000000     0.426050000000     0.0528846  
H51      H      0.441010000000     0.444720000000     0.499980000000     0.0529323  
H52      H      0.479280000000     0.572680000000     0.500220000000     0.0359689  
H53      H      0.408770000000     0.413690000000     0.470480000000     0.0283217  
H54      H      0.586180000000     0.627800000000     0.531080000000     0.0888606  
H55      H      0.556030000000     0.630910000000     0.507070000000     0.0703716  
H56      H      0.554540000000     0.648550000000     0.543120000000     0.0900663  
H57      H      0.779740000000     0.904410000000     0.313600000000     0.028649   
H58      H      0.686080000000     0.121400000000     0.190800000000     0.0280166  
H59      H      0.745090000000     0.961870000000     0.236440000000     0.0375349  
H60      H      0.720160000000     0.066090000000     0.270520000000     0.0368884  
H61      H      0.718780000000     0.091300000000     0.219970000000     0.0558649  
H62      H      0.752490000000     0.035310000000     0.300630000000     0.0381317  
H63      H      0.663490000000     0.014000000000     0.212340000000     0.0611652  
H64      H      0.748260000000     0.934710000000     0.282570000000     0.0529184  
H65      H      0.799120000000     0.014220000000     0.301770000000     0.0531059  
H66      H      0.712250000000     0.992520000000     0.206770000000     0.0360572  
H67      H      0.829550000000     0.983330000000     0.333460000000     0.0285258  
H68      H      0.621830000000     0.040430000000     0.154200000000     0.0903254  
H69      H      0.622140000000     0.015000000000     0.185410000000     0.0707348  
H70      H      0.603610000000     0.050280000000     0.189070000000     0.0911852  
H71      H      0.556840000000     0.163090000000     0.226620000000     0.0268137  
H72      H      0.408650000000     0.368180000000     0.299400000000     0.028921   
H73      H      0.525910000000     0.242260000000     0.285130000000     0.0377265  
H74      H      0.439110000000     0.289130000000     0.242060000000     0.0369571  
H75      H      0.439810000000     0.338180000000     0.268440000000     0.0558491  
H76      H      0.469470000000     0.257870000000     0.210210000000     0.0382858  
H77      H      0.448140000000     0.272400000000     0.339160000000     0.0610252  
H78      H      0.526530000000     0.193640000000     0.258910000000     0.0527555  
H79      H      0.516000000000     0.258480000000     0.186940000000     0.0535104  
H80      H      0.495460000000     0.273470000000     0.317010000000     0.0358154  
H81      H      0.545890000000     0.227090000000     0.155170000000     0.0287474  
H82      H      0.392960000000     0.294020000000     0.382730000000     0.0927633  
H83      H      0.428060000000     0.278830000000     0.385450000000     0.070812   
H84      H      0.422220000000     0.317170000000     0.397050000000     0.0893447  
H85      H      0.304240000000     0.911490000000     0.792410000000     0.0274451  
H86      H      0.162090000000     0.120170000000     0.716850000000     0.0277824  
H87      H      0.226580000000     0.961610000000     0.757310000000     0.0378168  
H88      H      0.243530000000     0.072810000000     0.748790000000     0.0361099  
H89      H      0.193830000000     0.090460000000     0.747450000000     0.055461   
H90      H      0.274750000000     0.042100000000     0.780330000000     0.037532   
H91      H      0.197490000000     0.021780000000     0.679010000000     0.0607104  
H92      H      0.274430000000     0.942340000000     0.760040000000     0.0524997  
H93      H      0.274960000000     0.013640000000     0.826760000000     0.0528079  
H94      H      0.195580000000     0.992280000000     0.725630000000     0.0361127  
H95      H      0.305370000000     0.982380000000     0.858230000000     0.0284309  
H96      H      0.169380000000     0.063920000000     0.621000000000     0.0891552  
H97      H      0.173970000000     0.025960000000     0.634340000000     0.0704796  
H98      H      0.139840000000     0.043240000000     0.638070000000     0.0918259  
H99      H      0.577950000000     0.732820000000     0.679920000000     0.0275835  
H100     H      0.384920000000     0.799780000000     0.836860000000     0.026603   
H101     H      0.531280000000     0.771350000000     0.760310000000     0.0368511  
H102     H      0.426810000000     0.759350000000     0.751670000000     0.0365992  
H103     H      0.414850000000     0.767370000000     0.806620000000     0.0553601  
H104     H      0.457900000000     0.727750000000     0.720790000000     0.0375593  
H105     H      0.464830000000     0.844780000000     0.780860000000     0.0607585  
H106     H      0.546660000000     0.764120000000     0.710130000000     0.0520789  
H107     H      0.491120000000     0.686780000000     0.722250000000     0.0522978  
H108     H      0.500120000000     0.803350000000     0.790490000000     0.035253   
H109     H      0.522500000000     0.656490000000     0.690960000000     0.0269452  
H110     H      0.441870000000     0.894450000000     0.835470000000     0.0880654  
H111     H      0.456590000000     0.892750000000     0.798650000000     0.0688584  
H112     H      0.419700000000     0.901190000000     0.802470000000     0.0899286  
H113     H      0.585270000000     0.064580000000     0.061990000000     0.0278567  
H114     H      0.374310000000     0.969180000000     0.951940000000     0.0281635  
H115     H      0.524230000000     0.039320000000     0.986110000000     0.0375852  
H116     H      0.433520000000     0.999920000000     0.027420000000     0.0360058  
H117     H      0.403350000000     0.001870000000     0.982700000000     0.0551585  
H118     H      0.464040000000     0.031530000000     0.058890000000     0.0375955  
H119     H      0.478170000000     0.955450000000     0.952090000000     0.0600416  
H120     H      0.554460000000     0.034050000000     0.030330000000     0.0523255  
H121     H      0.481970000000     0.083710000000     0.063840000000     0.0530252  
H122     H      0.493720000000     0.007830000000     0.954650000000     0.0353933  
H123     H      0.513440000000     0.113540000000     0.095560000000     0.028064   
H124     H      0.449710000000     0.919990000000     0.890750000000     0.0872701  
H125     H      0.476970000000     0.916500000000     0.918310000000     0.0682194  
H126     H      0.446440000000     0.892700000000     0.921520000000     0.0874126  
H127     H      0.889950000000     0.796950000000     0.344600000000     0.0289612  
H128     H      0.022020000000     0.696430000000     0.151420000000     0.026471   
H129     H      0.971950000000     0.755960000000     0.308040000000     0.0379741  
H130     H      0.984510000000     0.779540000000     0.199940000000     0.0364627  
H131     H      0.989420000000     0.726830000000     0.180380000000     0.0552483  
H132     H      0.951350000000     0.809760000000     0.229830000000     0.038012   
H133     H      0.050190000000     0.732030000000     0.251970000000     0.0608963  
H134     H      0.920650000000     0.765800000000     0.313300000000     0.0532303  
H135     H      0.952800000000     0.847280000000     0.271120000000     0.0533742  
H136     H      0.004530000000     0.725310000000     0.278020000000     0.0355668  
H137     H      0.921630000000     0.877700000000     0.302610000000     0.0283119  
H138     H      0.108980000000     0.708280000000     0.213370000000     0.0909148  
H139     H      0.093620000000     0.708910000000     0.249950000000     0.0700141  
H140     H      0.093850000000     0.673790000000     0.229820000000     0.0875418  
H141     H      0.154620000000     0.733380000000     0.108780000000     0.0265155  
H142     H      0.270780000000     0.843610000000     0.910050000000     0.0272792  
H143     H      0.236600000000     0.770010000000     0.066030000000     0.037554   
H144     H      0.232700000000     0.759850000000     0.955210000000     0.036503   
H145     H      0.239770000000     0.813230000000     0.940810000000     0.0555155  
H146     H      0.200920000000     0.729290000000     0.986210000000     0.0375452  
H147     H      0.308520000000     0.795360000000     0.001570000000     0.0607019  
H148     H      0.186220000000     0.764530000000     0.078480000000     0.052678   
H149     H      0.202670000000     0.686910000000     0.021630000000     0.052922   
H150     H      0.267750000000     0.801320000000     0.034960000000     0.0356886  
H151     H      0.170630000000     0.656620000000     0.052140000000     0.0273884  
H152     H      0.353710000000     0.851930000000     0.978190000000     0.0878378  
H153     H      0.353000000000     0.815150000000     0.995170000000     0.0700695  
H154     H      0.363510000000     0.818020000000     0.956810000000     0.0894995  
H155     H      0.296100000000     0.477940000000     0.363910000000     0.0284543  
H156     H      0.190860000000     0.596300000000     0.163390000000     0.0278303  
H157     H      0.215790000000     0.509570000000     0.314690000000     0.0375079  
H158     H      0.231940000000     0.512130000000     0.204690000000     0.0365683  
H159     H      0.221170000000     0.565350000000     0.194320000000     0.0554797  
H160     H      0.263370000000     0.481900000000     0.236370000000     0.0382576  
H161     H      0.148780000000     0.535220000000     0.244800000000     0.0606956  
H162     H      0.264380000000     0.508240000000     0.332990000000     0.0530541  
H163     H      0.263380000000     0.436230000000     0.267040000000     0.0531321  
H164     H      0.185040000000     0.540740000000     0.283130000000     0.0353968  
H165     H      0.295530000000     0.406850000000     0.298300000000     0.028767   
H166     H      0.096670000000     0.558690000000     0.195970000000     0.0921157  
H167     H      0.103530000000     0.550890000000     0.234560000000     0.0700135  
H168     H      0.101550000000     0.589700000000     0.222820000000     0.0880048  
H169     H      0.047170000000     0.157400000000     0.721350000000     0.0282157  
H170     H      0.912730000000     0.370010000000     0.802240000000     0.0287214  
H171     H      0.968680000000     0.208600000000     0.756400000000     0.0375524  
H172     H      0.990450000000     0.318550000000     0.768110000000     0.0362302  
H173     H      0.942730000000     0.339400000000     0.770620000000     0.0553863  
H174     H      0.020170000000     0.287270000000     0.735580000000     0.037696   
H175     H      0.940940000000     0.267450000000     0.835830000000     0.0606628  
H176     H      0.016970000000     0.187860000000     0.753840000000     0.052832   
H177     H      0.017720000000     0.259800000000     0.687830000000     0.0524212  
H178     H      0.938850000000     0.239900000000     0.788830000000     0.0356044  
H179     H      0.048210000000     0.228900000000     0.656150000000     0.0265123  
H180     H      0.884440000000     0.290780000000     0.876920000000     0.0896436  
H181     H      0.917710000000     0.271610000000     0.880660000000     0.0700392  
H182     H      0.914540000000     0.309210000000     0.895350000000     0.0890789  
H183     H      0.645470000000     0.169330000000     0.041220000000     0.0281795  
H184     H      0.802690000000     0.367640000000     0.971790000000     0.0287615  
H185     H      0.676850000000     0.251570000000     0.987500000000     0.037761   
H186     H      0.769700000000     0.287670000000     0.026340000000     0.0366239  
H187     H      0.771320000000     0.338470000000     0.003320000000     0.0556785  
H188     H      0.739450000000     0.256330000000     0.058260000000     0.0381091  
H189     H      0.752450000000     0.279050000000     0.929460000000     0.0606012  
H190     H      0.675160000000     0.200860000000     0.009300000000     0.0526836  
H191     H      0.694820000000     0.257730000000     0.085550000000     0.0533413  
H192     H      0.707160000000     0.282850000000     0.955550000000     0.0358094  
H193     H      0.665380000000     0.225320000000     0.116900000000     0.0289676  
H194     H      0.806040000000     0.298460000000     0.882890000000     0.0895976  
H195     H      0.769660000000     0.286960000000     0.882140000000     0.0699431  
H196     H      0.778050000000     0.325310000000     0.872540000000     0.0885646  
H197     H      0.790460000000     0.474170000000     0.869490000000     0.0282096  
H198     H      0.663480000000     0.557320000000     0.655300000000     0.0275098  
H199     H      0.713310000000     0.505510000000     0.814920000000     0.0375162  
H200     H      0.740590000000     0.527470000000     0.709570000000     0.0359635  
H201     H      0.693430000000     0.525740000000     0.686040000000     0.0552192  
H202     H      0.771430000000     0.495780000000     0.740470000000     0.0379145  
H203     H      0.682550000000     0.587380000000     0.759910000000     0.060659   
H204     H      0.759380000000     0.505950000000     0.839290000000     0.0527507  
H205     H      0.773090000000     0.446040000000     0.763840000000     0.0527088  
H206     H      0.682530000000     0.537360000000     0.784010000000     0.0357764  
H207     H      0.804500000000     0.415210000000     0.794540000000     0.0280963  
H208     H      0.624340000000     0.626290000000     0.732790000000     0.0891746  
H209     H      0.654020000000     0.629430000000     0.757440000000     0.0702359  
H210     H      0.655760000000     0.648050000000     0.721880000000     0.089051   
H211     H      0.907860000000     0.480530000000     0.903040000000     0.0283665  
H212     H      0.057030000000     0.552290000000     0.105030000000     0.026357   
H213     H      0.940050000000     0.539150000000     0.980570000000     0.0380629  
H214     H      0.025750000000     0.493580000000     0.027290000000     0.0361998  
H215     H      0.026640000000     0.520570000000     0.074890000000     0.0549784  
H216     H      0.994570000000     0.461740000000     0.996800000000     0.0377154  
H217     H      0.018130000000     0.592640000000     0.010400000000     0.0609234  
H218     H      0.939790000000     0.512050000000     0.932510000000     0.052932   
H219     H      0.946650000000     0.439810000000     0.997800000000     0.0529351  
H220     H      0.971070000000     0.570940000000     0.011170000000     0.0358832  
H221     H      0.914950000000     0.408780000000     0.967540000000     0.0277287  
H222     H      0.073690000000     0.637340000000     0.034570000000     0.0905695  
H223     H      0.040570000000     0.638470000000     0.015220000000     0.0707586  
H224     H      0.041730000000     0.651590000000     0.053110000000     0.0916796  
In1      In     0.853730000000     0.391080000000     0.884430000000     2.41561    
In2      In     0.105630000000     0.641520000000     0.132190000000     2.40801    
In3      In     0.355860000000     0.891430000000     0.881870000000     2.40632    
In4      In     0.603860000000     0.141270000000     0.134490000000     2.40461    
In5      In     0.353650000000     0.391210000000     0.384110000000     2.41265    
In6      In     0.605680000000     0.640860000000     0.632090000000     2.40566    
In7      In     0.855730000000     0.891300000000     0.382470000000     2.40698    
In8      In     0.103720000000     0.141460000000     0.634220000000     2.41566    
N1       N      0.046470000000     0.093510000000     0.583750000000    -0.210895   
N2       N      0.904050000000     0.942360000000     0.439450000000    -0.196854   
N3       N      0.661930000000     0.690510000000     0.582000000000    -0.21024    
N4       N      0.805930000000     0.840540000000     0.438070000000    -0.195415   
N5       N      0.158330000000     0.194690000000     0.585750000000    -0.210866   
N6       N      0.298500000000     0.341320000000     0.434530000000    -0.195844   
N7       N      0.556850000000     0.590650000000     0.574180000000    -0.211109   
N8       N      0.409470000000     0.442930000000     0.431900000000    -0.195754   
N9       N      0.655490000000     0.085580000000     0.184230000000    -0.211431   
N10      N      0.806740000000     0.941740000000     0.325880000000    -0.195621   
N11      N      0.409970000000     0.338190000000     0.337590000000    -0.210563   
N12      N      0.553470000000     0.192880000000     0.188630000000    -0.196505   
N13      N      0.160630000000     0.088460000000     0.680040000000    -0.210944   
N14      N      0.306850000000     0.944700000000     0.827620000000    -0.196228   
N15      N      0.407240000000     0.841330000000     0.826880000000    -0.21056    
N16      N      0.552460000000     0.692460000000     0.683310000000    -0.196785   
N17      N      0.409000000000     0.943320000000     0.933540000000    -0.210174   
N18      N      0.551550000000     0.091200000000     0.081010000000    -0.195481   
N19      N      0.055260000000     0.695950000000     0.184580000000    -0.211637   
N20      N      0.903740000000     0.839510000000     0.325960000000    -0.195845   
N21      N      0.307900000000     0.837760000000     0.937630000000    -0.212394   
N22      N      0.160330000000     0.692850000000     0.082570000000    -0.196631   
N23      N      0.151960000000     0.584520000000     0.185960000000    -0.210696   
N24      N      0.298150000000     0.440330000000     0.333260000000    -0.195809   
N25      N      0.908600000000     0.336730000000     0.837450000000    -0.210765   
N26      N      0.049920000000     0.191030000000     0.686540000000    -0.196187   
N27      N      0.796120000000     0.340740000000     0.932010000000    -0.210688   
N28      N      0.653360000000     0.195060000000     0.081300000000    -0.195844   
N29      N      0.655090000000     0.590920000000     0.689350000000    -0.210777   
N30      N      0.799750000000     0.442530000000     0.834140000000    -0.195875   
N31      N      0.055210000000     0.591360000000     0.075920000000    -0.211173   
N32      N      0.909080000000     0.442490000000     0.933230000000    -0.196149   
O1       O      0.879020000000     0.347270000000     0.877960000000    -0.515282   
O2       O      0.883550000000     0.381540000000     0.845060000000    -0.503243   
O3       O      0.828080000000     0.380570000000     0.926710000000    -0.503026   
O4       O      0.883030000000     0.398750000000     0.924620000000    -0.503529   
O5       O      0.830410000000     0.402030000000     0.840880000000    -0.501786   
O6       O      0.879870000000     0.434190000000     0.892380000000    -0.504579   
O7       O      0.821710000000     0.352420000000     0.888840000000    -0.51613    
O8       O      0.823110000000     0.430970000000     0.878320000000    -0.503775   
O9       O      0.097210000000     0.669960000000     0.174160000000    -0.513628   
O10      O      0.064610000000     0.667730000000     0.141730000000    -0.510479   
O11      O      0.109710000000     0.607060000000     0.170280000000    -0.507735   
O12      O      0.082880000000     0.597590000000     0.118530000000    -0.507654   
O13      O      0.128850000000     0.686060000000     0.121830000000    -0.508401   
O14      O      0.078500000000     0.635810000000     0.090160000000    -0.510341   
O15      O      0.147110000000     0.619000000000     0.146870000000    -0.507379   
O16      O      0.137090000000     0.647930000000     0.093780000000    -0.501949   
O17      O      0.370870000000     0.846310000000     0.861700000000    -0.507132   
O18      O      0.390570000000     0.886930000000     0.846770000000    -0.508074   
O19      O      0.332360000000     0.935770000000     0.871060000000    -0.498479   
O20      O      0.314310000000     0.868300000000     0.895740000000    -0.513968   
O21      O      0.399520000000     0.904870000000     0.899120000000    -0.511989   
O22      O      0.350160000000     0.861050000000     0.923150000000    -0.519858   
O23      O      0.330970000000     0.900320000000     0.838740000000    -0.505696   
O24      O      0.364390000000     0.929290000000     0.916140000000    -0.495577   
O25      O      0.644660000000     0.131140000000     0.160570000000    -0.507597   
O26      O      0.613810000000     0.096380000000     0.158250000000    -0.512357   
O27      O      0.575900000000     0.182610000000     0.143670000000    -0.501704   
O28      O      0.633520000000     0.181760000000     0.126870000000    -0.497082   
O29      O      0.595720000000     0.104260000000     0.099600000000    -0.494251   
O30      O      0.623430000000     0.154150000000     0.089270000000    -0.502202   
O31      O      0.581700000000     0.150880000000     0.179170000000    -0.508501   
O32      O      0.560070000000     0.128810000000     0.116150000000    -0.503639   
O33      O      0.325630000000     0.349520000000     0.392100000000    -0.503443   
O34      O      0.325860000000     0.384030000000     0.425520000000    -0.500452   
O35      O      0.381260000000     0.380720000000     0.343240000000    -0.503254   
O36      O      0.325790000000     0.397910000000     0.342690000000    -0.502152   
O37      O      0.380080000000     0.401270000000     0.425850000000    -0.502239   
O38      O      0.325930000000     0.433070000000     0.375420000000    -0.502938   
O39      O      0.382320000000     0.349620000000     0.379390000000    -0.512855   
O40      O      0.382920000000     0.432430000000     0.389500000000    -0.501916   
O41      O      0.578860000000     0.599190000000     0.619950000000    -0.50148    
O42      O      0.584330000000     0.632850000000     0.586700000000    -0.516971   
O43      O      0.564940000000     0.647770000000     0.659280000000    -0.507939   
O44      O      0.626940000000     0.632820000000     0.677400000000    -0.517742   
O45      O      0.617190000000     0.680680000000     0.601450000000    -0.49514    
O46      O      0.633180000000     0.599700000000     0.643560000000    -0.500446   
O47      O      0.593410000000     0.685090000000     0.655730000000    -0.502182   
O48      O      0.649840000000     0.649760000000     0.612890000000    -0.514309   
O49      O      0.849230000000     0.853610000000     0.417260000000    -0.497907   
O50      O      0.813130000000     0.879170000000     0.403730000000    -0.49953    
O51      O      0.898190000000     0.905300000000     0.403190000000    -0.507418   
O52      O      0.887260000000     0.885650000000     0.343840000000    -0.503106   
O53      O      0.820060000000     0.896390000000     0.348140000000    -0.500326   
O54      O      0.870870000000     0.845520000000     0.364000000000    -0.499416   
O55      O      0.861120000000     0.927620000000     0.418920000000    -0.504338   
O56      O      0.843670000000     0.936010000000     0.359590000000    -0.5021     
O57      O      0.131560000000     0.183470000000     0.628230000000    -0.512594   
O58      O      0.130820000000     0.151470000000     0.592830000000    -0.506143   
O59      O      0.132360000000     0.131310000000     0.674380000000    -0.506581   
O60      O      0.076520000000     0.148030000000     0.676230000000    -0.502113   
O61      O      0.075520000000     0.135360000000     0.593050000000    -0.512984   
O62      O      0.076670000000     0.183460000000     0.643760000000    -0.506104   
O63      O      0.131830000000     0.099380000000     0.638950000000    -0.51439    
O64      O      0.074700000000     0.100600000000     0.625810000000    -0.506987   


