data_structure

_audit_creation_method RASPA-1.0
_audit_creation_date 2023-6-5
_audit_author_name 'Poobodin Mano'

_cell_length_a    55.879
_cell_length_b    56.1145
_cell_length_c    30.9053
_cell_angle_alpha 89.777
_cell_angle_beta  90.223
_cell_angle_gamma 89.9997
_cell_volume      96905.9

_symmetry_cell_setting          triclinic
_symmetry_space_group_name_Hall 'P 1'
_symmetry_space_group_name_H-M  'P 1'
_symmetry_Int_Tables_number     1

_symmetry_equiv_pos_as_xyz 'x,y,z'

loop_
_atom_site_label
_atom_site_type_symbol
_atom_site_fract_x
_atom_site_fract_y
_atom_site_fract_z
_atom_site_charge
C1       C      0.324840000000     0.370210000000     0.987710000000     0.415647   
C2       C      0.310980000000     0.297830000000     0.916170000000     0.418726   
C3       C      0.378200000000     0.316840000000     0.975670000000     0.419012   
C4       C      0.307480000000     0.305170000000     0.054900000000     0.416141   
C5       C      0.328200000000     0.622270000000     0.983950000000     0.415177   
C6       C      0.310760000000     0.690490000000     0.055010000000     0.421637   
C7       C      0.380820000000     0.675360000000     0.987780000000     0.414052   
C8       C      0.311660000000     0.690760000000     0.916080000000     0.412847   
C9       C      0.630470000000     0.330610000000     0.983200000000     0.414555   
C10      C      0.699570000000     0.315420000000     0.919380000000     0.416558   
C11      C      0.687880000000     0.384000000000     0.988740000000     0.422174   
C12      C      0.695230000000     0.316790000000     0.062530000000     0.418433   
C13      C      0.688990000000     0.635800000000     0.991680000000     0.41405    
C14      C      0.700970000000     0.708540000000     0.920180000000     0.418089   
C15      C      0.634290000000     0.683560000000     0.983500000000     0.416048   
C16      C      0.704810000000     0.704650000000     0.056000000000     0.409976   
C17      C      0.822640000000     0.136160000000     0.494110000000     0.418382   
C18      C      0.810970000000     0.206710000000     0.559680000000     0.420055   
C19      C      0.877400000000     0.185730000000     0.481100000000     0.420937   
C20      C      0.806540000000     0.205360000000     0.422240000000     0.413855   
C21      C      0.880650000000     0.827970000000     0.488850000000     0.4163     
C22      C      0.809090000000     0.816230000000     0.555210000000     0.412774   
C23      C      0.827160000000     0.884210000000     0.495360000000     0.416818   
C24      C      0.814640000000     0.815740000000     0.416040000000     0.415989   
C25      C      0.133580000000     0.820430000000     0.483120000000     0.412209   
C26      C      0.203680000000     0.801330000000     0.416800000000     0.412254   
C27      C      0.187150000000     0.871250000000     0.483990000000     0.417921   
C28      C      0.202770000000     0.799420000000     0.550730000000     0.418216   
C29      C      0.130280000000     0.178650000000     0.476040000000     0.411089   
C30      C      0.200510000000     0.188880000000     0.554340000000     0.409608   
C31      C      0.182470000000     0.123250000000     0.487120000000     0.414425   
C32      C      0.198350000000     0.194890000000     0.416650000000     0.412448   
C33      C      0.195090000000     0.934020000000     0.449630000000    -0.1067     
C34      C      0.181910000000     0.086910000000     0.526920000000     0.0749476  
C35      C      0.189010000000     0.086490000000     0.451320000000     0.076139   
C36      C      0.183490000000     0.062070000000     0.528620000000    -0.0942991  
C37      C      0.172510000000     0.009360000000     0.515350000000    -0.0354341  
C38      C      0.173080000000     0.984460000000     0.514700000000    -0.0336893  
C39      C      0.189230000000     0.022710000000     0.491600000000    -0.00616136 
C40      C      0.190840000000     0.061690000000     0.451880000000    -0.094448   
C41      C      0.190460000000     0.972330000000     0.490410000000    -0.00896616 
C42      C      0.185600000000     0.932170000000     0.525230000000    -0.0975277  
C43      C      0.207440000000     0.985730000000     0.467260000000    -0.0337175  
C44      C      0.184930000000     0.907380000000     0.522510000000     0.0753001  
C45      C      0.194400000000     0.909070000000     0.447620000000     0.104575   
C46      C      0.206800000000     0.010620000000     0.467780000000    -0.0355949  
C47      C      0.187970000000     0.049150000000     0.490790000000     0.0506976  
C48      C      0.190520000000     0.945840000000     0.488490000000     0.0562698  
C49      C      0.943120000000     0.817670000000     0.524400000000    -0.106922   
C50      C      0.096710000000     0.823360000000     0.445020000000     0.0756047  
C51      C      0.096840000000     0.814690000000     0.520180000000     0.0754092  
C52      C      0.071730000000     0.822910000000     0.444200000000    -0.0942383  
C53      C      0.019640000000     0.835700000000     0.458190000000    -0.0354207  
C54      C      0.994650000000     0.836190000000     0.458810000000    -0.0337469  
C55      C      0.032350000000     0.818530000000     0.482260000000    -0.0061725  
C56      C      0.071850000000     0.814130000000     0.520540000000    -0.0942459  
C57      C      0.981760000000     0.819550000000     0.483590000000    -0.00911611 
C58      C      0.941800000000     0.824990000000     0.447860000000    -0.0977922  
C59      C      0.994450000000     0.802260000000     0.507410000000    -0.0338796  
C60      C      0.916960000000     0.826820000000     0.450250000000     0.0745309  
C61      C      0.918130000000     0.819620000000     0.526110000000     0.104609   
C62      C      0.019450000000     0.801740000000     0.506740000000    -0.0354996  
C63      C      0.058960000000     0.818390000000     0.482290000000     0.0505842  
C64      C      0.955210000000     0.820610000000     0.485240000000     0.0563305  
C65      C      0.805460000000     0.073980000000     0.469350000000    -0.106867   
C66      C      0.839480000000     0.921120000000     0.525330000000     0.0756036  
C67      C      0.808610000000     0.920280000000     0.472520000000     0.0758214  
C68      C      0.838170000000     0.945930000000     0.527260000000    -0.0943412  
C69      C      0.842360000000     0.998140000000     0.504640000000    -0.0352711  
C70      C      0.841730000000     0.023010000000     0.504530000000    -0.0336802  
C71      C      0.821120000000     0.984820000000     0.501010000000    -0.00612548 
C72      C      0.806910000000     0.945120000000     0.473430000000    -0.0940984  
C73      C      0.819880000000     0.035210000000     0.500500000000    -0.00908815 
C74      C      0.833310000000     0.074770000000     0.528650000000    -0.0980926  
C75      C      0.798630000000     0.021970000000     0.496790000000    -0.0338481  
C76      C      0.833450000000     0.099570000000     0.526430000000     0.0766922  
C77      C      0.805960000000     0.098950000000     0.467500000000     0.10485    
C78      C      0.799230000000     0.997060000000     0.497170000000    -0.0353224  
C79      C      0.821940000000     0.958310000000     0.500770000000     0.0506477  
C80      C      0.819420000000     0.061660000000     0.499650000000     0.0567934  
C81      C      0.939390000000     0.175090000000     0.444020000000    -0.106873   
C82      C      0.094830000000     0.197650000000     0.500340000000     0.0757212  
C83      C      0.092630000000     0.168280000000     0.445490000000     0.0753121  
C84      C      0.069950000000     0.200040000000     0.500040000000    -0.0943686  
C85      C      0.017190000000     0.187800000000     0.511900000000    -0.0355232  
C86      C      0.992190000000     0.188220000000     0.512550000000    -0.0335432  
C87      C      0.029570000000     0.187690000000     0.472430000000    -0.00615551 
C88      C      0.067730000000     0.170380000000     0.444040000000    -0.0943946  
C89      C      0.978970000000     0.188720000000     0.473710000000    -0.00892954 
C90      C      0.939590000000     0.200670000000     0.506050000000    -0.0971965  
C91      C      0.991440000000     0.189040000000     0.434220000000    -0.0336618  
C92      C      0.914670000000     0.199410000000     0.507120000000     0.0757042  
C93      C      0.914330000000     0.174180000000     0.445500000000     0.105745   
C94      C      0.016440000000     0.188420000000     0.433600000000    -0.03567    
C95      C      0.056090000000     0.186190000000     0.471890000000     0.0507455  
C96      C      0.952320000000     0.188320000000     0.474440000000     0.0563778  
C97      C      0.709440000000     0.751500000000     0.830240000000    -0.106877   
C98      C      0.805980000000     0.785330000000     0.607510000000     0.0769006  
C99      C      0.777430000000     0.816590000000     0.606380000000     0.0757126  
C100     C      0.794640000000     0.774830000000     0.642910000000    -0.0946926  
C101     C      0.759750000000     0.749600000000     0.701910000000    -0.0353799  
C102     C      0.749220000000     0.739240000000     0.738290000000    -0.0340469  
C103     C      0.762090000000     0.774490000000     0.698560000000    -0.00631485 
C104     C      0.765590000000     0.806540000000     0.641790000000    -0.0942229  
C105     C      0.740690000000     0.753500000000     0.772180000000    -0.0090286  
C106     C      0.740870000000     0.722350000000     0.830250000000    -0.0976848  
C107     C      0.742620000000     0.778400000000     0.768580000000    -0.0339728  
C108     C      0.730760000000     0.711830000000     0.866740000000     0.0753747  
C109     C      0.699490000000     0.740580000000     0.866930000000     0.104429   
C110     C      0.753230000000     0.788790000000     0.732200000000    -0.0353266  
C111     C      0.774180000000     0.785410000000     0.660560000000     0.0508702  
C112     C      0.730170000000     0.742330000000     0.811390000000     0.0562608  
C113     C      0.798750000000     0.802230000000     0.302340000000    -0.106971   
C114     C      0.704500000000     0.733240000000     0.112430000000     0.0750554  
C115     C      0.738260000000     0.708160000000     0.103310000000     0.0751233  
C116     C      0.715370000000     0.744220000000     0.147890000000    -0.0941628  
C117     C      0.736990000000     0.753210000000     0.236870000000    -0.0354816  
C118     C      0.748000000000     0.764090000000     0.272330000000    -0.0337414  
C119     C      0.750020000000     0.748540000000     0.199020000000    -0.00622531 
C120     C      0.749730000000     0.718870000000     0.138460000000    -0.0943136  
C121     C      0.772240000000     0.770700000000     0.270630000000    -0.00916945 
C122     C      0.779920000000     0.774200000000     0.350190000000    -0.0977075  
C123     C      0.785270000000     0.766050000000     0.232780000000    -0.0338222  
C124     C      0.790720000000     0.785600000000     0.385180000000     0.0747984  
C125     C      0.809320000000     0.813530000000     0.338010000000     0.104795   
C126     C      0.774310000000     0.755000000000     0.197410000000    -0.0355931  
C127     C      0.738250000000     0.737070000000     0.161310000000     0.0505689  
C128     C      0.783820000000     0.782500000000     0.308190000000     0.0563515  
C129     C      0.793920000000     0.252800000000     0.639260000000    -0.106959   
C130     C      0.731400000000     0.292590000000     0.890210000000     0.0753482  
C131     C      0.700320000000     0.306610000000     0.844260000000     0.0760618  
C132     C      0.742760000000     0.281820000000     0.855200000000    -0.0943719  
C133     C      0.755000000000     0.249460000000     0.779890000000    -0.0354387  
C134     C      0.766230000000     0.238870000000     0.744520000000    -0.0337292  
C135     C      0.744610000000     0.272200000000     0.776040000000    -0.00626672 
C136     C      0.711220000000     0.296080000000     0.808500000000    -0.0945553  
C137     C      0.767380000000     0.250780000000     0.704470000000    -0.00906369 
C138     C      0.775980000000     0.215320000000     0.658010000000    -0.0976718  
C139     C      0.757020000000     0.273520000000     0.700620000000    -0.0338565  
C140     C      0.787000000000     0.205050000000     0.622240000000     0.0752536  
C141     C      0.804890000000     0.242100000000     0.603500000000     0.104551   
C142     C      0.745740000000     0.284100000000     0.735970000000    -0.0354505  
C143     C      0.732710000000     0.283490000000     0.813690000000     0.0507135  
C144     C      0.779260000000     0.239480000000     0.666800000000     0.0563256  
C145     C      0.701430000000     0.280770000000     0.162570000000    -0.106877   
C146     C      0.807560000000     0.231370000000     0.361510000000     0.0753866  
C147     C      0.771250000000     0.212330000000     0.380980000000     0.0756098  
C148     C      0.796220000000     0.242800000000     0.326870000000    -0.0946884  
C149     C      0.764200000000     0.274890000000     0.272480000000    -0.0355826  
C150     C      0.752980000000     0.286030000000     0.237350000000    -0.0338419  
C151     C      0.759530000000     0.250840000000     0.282160000000    -0.00633515 
C152     C      0.759350000000     0.223400000000     0.346530000000    -0.0946102  
C153     C      0.736870000000     0.273370000000     0.210990000000    -0.00904116 
C154     C      0.738500000000     0.300410000000     0.146370000000    -0.0977891  
C155     C      0.732070000000     0.249360000000     0.220890000000    -0.0337947  
C156     C      0.727700000000     0.310860000000     0.110290000000     0.0765541  
C157     C      0.690900000000     0.291480000000     0.126100000000     0.104618   
C158     C      0.743240000000     0.238240000000     0.256100000000    -0.0354502  
C159     C      0.771830000000     0.238890000000     0.319010000000     0.0506817  
C160     C      0.725430000000     0.285040000000     0.172900000000     0.0564963  
C161     C      0.702010000000     0.445660000000     0.954580000000    -0.107218   
C162     C      0.685730000000     0.598920000000     0.029350000000     0.0758572  
C163     C      0.699100000000     0.599640000000     0.956640000000     0.0764638  
C164     C      0.687130000000     0.574050000000     0.030170000000    -0.0940746  
C165     C      0.703100000000     0.522170000000     0.028950000000    -0.0353843  
C166     C      0.703230000000     0.497250000000     0.028460000000    -0.0336998  
C167     C      0.695090000000     0.535170000000     0.992680000000    -0.00615187 
C168     C      0.700760000000     0.574830000000     0.956340000000    -0.094405   
C169     C      0.695390000000     0.484770000000     0.991660000000    -0.00918645 
C170     C      0.686840000000     0.445470000000     0.027130000000    -0.0979039  
C171     C      0.687500000000     0.497770000000     0.955370000000    -0.0336667  
C172     C      0.685290000000     0.420700000000     0.025370000000     0.0770095  
C173     C      0.700410000000     0.420730000000     0.953560000000     0.105439   
C174     C      0.687320000000     0.522650000000     0.955880000000    -0.03543    
C175     C      0.694500000000     0.561670000000     0.993220000000     0.0507437  
C176     C      0.694920000000     0.458290000000     0.991260000000     0.0567493  
C177     C      0.219460000000     0.753270000000     0.631280000000    -0.106981   
C178     C      0.304870000000     0.724800000000     0.871770000000     0.0757874  
C179     C      0.286750000000     0.687890000000     0.853860000000     0.0755684  
C180     C      0.294360000000     0.735630000000     0.835640000000    -0.0943229  
C181     C      0.281310000000     0.749200000000     0.743020000000    -0.0354817  
C182     C      0.270630000000     0.759720000000     0.706700000000    -0.0337147  
C183     C      0.268260000000     0.733530000000     0.769520000000    -0.00611724 
C184     C      0.275850000000     0.698180000000     0.817590000000    -0.0942733  
C185     C      0.246610000000     0.754880000000     0.696140000000    -0.00895069 
C186     C      0.239910000000     0.789870000000     0.646810000000    -0.0973831  
C187     C      0.233560000000     0.739230000000     0.722760000000    -0.0336755  
C188     C      0.228940000000     0.800220000000     0.610760000000     0.0755607  
C189     C      0.208580000000     0.764030000000     0.595210000000     0.105398   
C190     C      0.244280000000     0.728640000000     0.758960000000    -0.0355601  
C191     C      0.279630000000     0.722310000000     0.808050000000     0.0507541  
C192     C      0.235190000000     0.766150000000     0.657600000000     0.056435   
C193     C      0.265760000000     0.708390000000     0.136230000000    -0.107224   
C194     C      0.238030000000     0.795070000000     0.373150000000     0.075673   
C195     C      0.201890000000     0.774650000000     0.357470000000     0.0759747  
C196     C      0.249290000000     0.784100000000     0.338190000000    -0.0941291  
C197     C      0.263940000000     0.768980000000     0.247770000000    -0.0352289  
C198     C      0.274380000000     0.758040000000     0.211920000000    -0.0338583  
C199     C      0.248090000000     0.756300000000     0.274560000000    -0.00610719 
C200     C      0.212550000000     0.763420000000     0.322240000000    -0.0940809  
C201     C      0.269120000000     0.734180000000     0.201950000000    -0.00904442 
C202     C      0.303840000000     0.725880000000     0.153210000000    -0.0977424  
C203     C      0.253440000000     0.721430000000     0.228910000000    -0.0338635  
C204     C      0.313510000000     0.714820000000     0.116920000000     0.0753568  
C205     C      0.275800000000     0.697530000000     0.099780000000     0.105281   
C206     C      0.243090000000     0.732340000000     0.264830000000    -0.0353865  
C207     C      0.236540000000     0.768050000000     0.312160000000     0.0506522  
C208     C      0.279730000000     0.722680000000     0.163310000000     0.0565823  
C209     C      0.571640000000     0.672760000000     0.949530000000    -0.106682   
C210     C      0.418690000000     0.664300000000     0.016590000000     0.0761762  
C211     C      0.416350000000     0.692600000000     0.959570000000     0.0754441  
C212     C      0.443640000000     0.665720000000     0.016530000000    -0.0940783  
C213     C      0.495400000000     0.680720000000     0.024800000000    -0.0352945  
C214     C      0.520390000000     0.681320000000     0.023710000000    -0.0335854  
C215     C      0.481920000000     0.682370000000     0.986370000000    -0.00602902 
C216     C      0.441260000000     0.694630000000     0.958900000000    -0.0939132  
C217     C      0.532580000000     0.683810000000     0.984220000000    -0.00882302 
C218     C      0.572520000000     0.694990000000     0.015690000000    -0.097162   
C219     C      0.519090000000     0.685800000000     0.945850000000    -0.0337617  
C220     C      0.597450000000     0.694440000000     0.014690000000     0.0755724  
C221     C      0.596730000000     0.672580000000     0.948950000000     0.10495    
C222     C      0.494110000000     0.684990000000     0.946890000000    -0.0353351  
C223     C      0.455300000000     0.680980000000     0.987390000000     0.0504214  
C224     C      0.559240000000     0.683970000000     0.983030000000     0.0560856  
C225     C      0.287080000000     0.250000000000     0.846030000000    -0.106666   
C226     C      0.235820000000     0.203060000000     0.588730000000     0.0747989  
C227     C      0.198970000000     0.203140000000     0.626530000000     0.0755657  
C228     C      0.247460000000     0.213110000000     0.624330000000    -0.0940251  
C229     C      0.263640000000     0.247670000000     0.693890000000    -0.035307   
C230     C      0.274580000000     0.258480000000     0.729500000000    -0.0336996  
C231     C      0.246510000000     0.229600000000     0.699770000000    -0.00609243 
C232     C      0.210040000000     0.213200000000     0.662700000000    -0.0939898  
C233     C      0.268650000000     0.251500000000     0.771860000000    -0.00890078 
C234     C      0.283770000000     0.287850000000     0.810090000000    -0.0973911  
C235     C      0.251620000000     0.233330000000     0.777740000000    -0.0337433  
C236     C      0.294230000000     0.298660000000     0.846020000000     0.0758291  
C237     C      0.297580000000     0.261220000000     0.881850000000     0.10458    
C238     C      0.240690000000     0.222510000000     0.742130000000    -0.0353811  
C239     C      0.234560000000     0.218420000000     0.661870000000     0.0505112  
C240     C      0.280010000000     0.263260000000     0.809770000000     0.0563748  
C241     C      0.264100000000     0.295300000000     0.143490000000    -0.106853   
C242     C      0.228960000000     0.197390000000     0.363870000000     0.0764714  
C243     C      0.198650000000     0.226930000000     0.366010000000     0.0748648  
C244     C      0.239530000000     0.208580000000     0.328380000000    -0.0943971  
C245     C      0.249380000000     0.227470000000     0.238510000000    -0.0354681  
C246     C      0.260110000000     0.238430000000     0.202880000000    -0.0338244  
C247     C      0.240270000000     0.241180000000     0.272680000000    -0.00611565 
C248     C      0.208760000000     0.238600000000     0.330450000000    -0.0939511  
C249     C      0.261950000000     0.263370000000     0.200480000000    -0.00906388 
C250     C      0.294840000000     0.265450000000     0.145860000000    -0.0978053  
C251     C      0.252590000000     0.277130000000     0.234360000000    -0.0338584  
C252     C      0.305610000000     0.276190000000     0.110190000000     0.0755821  
C253     C      0.275190000000     0.305800000000     0.107500000000     0.103969   
C254     C      0.241870000000     0.266160000000     0.270090000000    -0.0355123  
C255     C      0.229390000000     0.229370000000     0.311010000000     0.0505879  
C256     C      0.273780000000     0.274900000000     0.162840000000     0.0562239  
C257     C      0.439900000000     0.316980000000     0.932610000000    -0.107112   
C258     C      0.596360000000     0.305490000000     0.977030000000     0.0763834  
C259     C      0.591500000000     0.347380000000     0.981850000000     0.0757685  
C260     C      0.571560000000     0.302410000000     0.974550000000    -0.0946926  
C261     C      0.518300000000     0.301790000000     0.997070000000    -0.0354363  
C262     C      0.493350000000     0.299930000000     0.996070000000    -0.0339248  
C263     C      0.530020000000     0.319540000000     0.972920000000    -0.00636525 
C264     C      0.566690000000     0.344970000000     0.979180000000    -0.0946834  
C265     C      0.479610000000     0.315680000000     0.970650000000    -0.0091299  
C266     C      0.440650000000     0.311580000000     0.009680000000    -0.0976845  
C267     C      0.491380000000     0.333120000000     0.945870000000    -0.033776   
C268     C      0.415710000000     0.311950000000     0.009780000000     0.0764526  
C269     C      0.414810000000     0.317140000000     0.933390000000     0.105006   
C270     C      0.516290000000     0.335070000000     0.947070000000    -0.0355863  
C271     C      0.556420000000     0.322300000000     0.975470000000     0.0509359  
C272     C      0.453060000000     0.314490000000     0.970920000000     0.0565204  
C273     C      0.303040000000     0.431940000000     0.971870000000    -0.106966   
C274     C      0.336130000000     0.585210000000     0.950030000000     0.0766511  
C275     C      0.315220000000     0.586160000000     0.016640000000     0.0761141  
C276     C      0.335140000000     0.560350000000     0.949670000000    -0.0947775  
C277     C      0.343850000000     0.508440000000     0.973210000000    -0.0355087  
C278     C      0.343500000000     0.483560000000     0.974520000000    -0.0337618  
C279     C      0.323430000000     0.521620000000     0.984440000000    -0.00631722 
C280     C      0.313810000000     0.561310000000     0.017210000000    -0.0945366  
C281     C      0.322690000000     0.471270000000     0.986900000000    -0.00920745 
C282     C      0.341770000000     0.432230000000     0.005730000000    -0.0979941  
C283     C      0.302210000000     0.484430000000     0.997900000000    -0.0339345  
C284     C      0.341650000000     0.407410000000     0.005780000000     0.0748832  
C285     C      0.303320000000     0.406940000000     0.972100000000     0.10445    
C286     C      0.302590000000     0.509350000000     0.996820000000    -0.0356514  
C287     C      0.324000000000     0.548080000000     0.983640000000     0.0509004  
C288     C      0.322450000000     0.444810000000     0.988280000000     0.0561946  
H1       H      0.191150000000     0.095520000000     0.420480000000     0.0300943  
H2       H      0.180900000000     0.897710000000     0.552050000000     0.0301707  
H3       H      0.220160000000     0.020420000000     0.449690000000     0.0387325  
H4       H      0.159520000000     0.974730000000     0.532390000000     0.0381578  
H5       H      0.182350000000     0.940530000000     0.556180000000     0.0547559  
H6       H      0.158560000000     0.018150000000     0.533560000000     0.0388084  
H7       H      0.198730000000     0.944200000000     0.420510000000     0.0582681  
H8       H      0.194030000000     0.052380000000     0.421810000000     0.0543553  
H9       H      0.181410000000     0.053070000000     0.559440000000     0.0539947  
H10      H      0.221340000000     0.976980000000     0.448860000000     0.0377766  
H11      H      0.178420000000     0.096300000000     0.556840000000     0.0280073  
H12      H      0.224670000000     0.892190000000     0.393320000000     0.0406587  
H13      H      0.106170000000     0.811510000000     0.550490000000     0.0286762  
H14      H      0.907470000000     0.830450000000     0.420250000000     0.0288811  
H15      H      0.028680000000     0.788040000000     0.525100000000     0.0384258  
H16      H      0.985430000000     0.849970000000     0.440640000000     0.0382692  
H17      H      0.950420000000     0.826980000000     0.416720000000     0.0544674  
H18      H      0.029010000000     0.849130000000     0.439550000000     0.0386151  
H19      H      0.953140000000     0.814300000000     0.553900000000     0.0583816  
H20      H      0.062720000000     0.810830000000     0.550830000000     0.0538131  
H21      H      0.062520000000     0.825950000000     0.413770000000     0.0540555  
H22      H      0.985030000000     0.788970000000     0.526320000000     0.0376693  
H23      H      0.105930000000     0.827000000000     0.414900000000     0.0297772  
H24      H      0.899740000000     0.791260000000     0.582410000000     0.0393547  
H25      H      0.796890000000     0.910720000000     0.450560000000     0.0293009  
H26      H      0.844760000000     0.108810000000     0.549520000000     0.0297633  
H27      H      0.782500000000     0.987390000000     0.494940000000     0.0384419  
H28      H      0.858450000000     0.032720000000     0.506740000000     0.0386068  
H29      H      0.844090000000     0.065910000000     0.553090000000     0.05521    
H30      H      0.859580000000     0.989360000000     0.506780000000     0.0386019  
H31      H      0.794490000000     0.064160000000     0.446550000000     0.0585673  
H32      H      0.794280000000     0.953900000000     0.452040000000     0.0540681  
H33      H      0.849810000000     0.955310000000     0.549520000000     0.0539297  
H34      H      0.781490000000     0.030890000000     0.494130000000     0.037978   
H35      H      0.852420000000     0.912250000000     0.546100000000     0.0287905  
H36      H      0.765090000000     0.116650000000     0.446520000000     0.0391012  
H37      H      0.100980000000     0.155570000000     0.423940000000     0.0286211  
H38      H      0.905760000000     0.209350000000     0.532420000000     0.0305199  
H39      H      0.025520000000     0.188660000000     0.402700000000     0.0388395  
H40      H      0.983240000000     0.187550000000     0.543540000000     0.0381749  
H41      H      0.948780000000     0.211460000000     0.529880000000     0.0548056  
H42      H      0.026820000000     0.186930000000     0.542350000000     0.0390816  
H43      H      0.948780000000     0.164960000000     0.419600000000     0.0582793  
H44      H      0.057640000000     0.159230000000     0.422020000000     0.05426    
H45      H      0.061630000000     0.212670000000     0.521730000000     0.0544556  
H46      H      0.981890000000     0.189880000000     0.403700000000     0.0377579  
H47      H      0.104940000000     0.208560000000     0.522800000000     0.0304418  
H48      H      0.895220000000     0.170000000000     0.370110000000     0.0417757  
H49      H      0.770250000000     0.832940000000     0.592730000000     0.0284152  
H50      H      0.739840000000     0.696310000000     0.879880000000     0.0310317  
H51      H      0.755020000000     0.807990000000     0.730930000000     0.0386279  
H52      H      0.747600000000     0.720020000000     0.739760000000     0.0382792  
H53      H      0.757180000000     0.714900000000     0.817110000000     0.055007   
H54      H      0.765950000000     0.738090000000     0.676240000000     0.0385121  
H55      H      0.700760000000     0.766960000000     0.816040000000     0.0582374  
H56      H      0.749670000000     0.815170000000     0.654050000000     0.0538721  
H57      H      0.802140000000     0.758710000000     0.656750000000     0.0540189  
H58      H      0.736450000000     0.789850000000     0.794370000000     0.0384077  
H59      H      0.821830000000     0.776640000000     0.594990000000     0.0296485  
H60      H      0.653640000000     0.743930000000     0.868650000000     0.0410828  
H61      H      0.747640000000     0.694030000000     0.086570000000     0.0287401  
H62      H      0.787020000000     0.778390000000     0.417080000000     0.0295118  
H63      H      0.784760000000     0.751810000000     0.168570000000     0.0386674  
H64      H      0.737440000000     0.767620000000     0.300910000000     0.0384433  
H65      H      0.768710000000     0.758780000000     0.356090000000     0.0549362  
H66      H      0.718310000000     0.748240000000     0.239240000000     0.0389768  
H67      H      0.801940000000     0.809050000000     0.270000000000     0.0585898  
H68      H      0.767330000000     0.712670000000     0.148060000000     0.0542029  
H69      H      0.706000000000     0.758420000000     0.164360000000     0.0544246  
H70      H      0.804030000000     0.770760000000     0.230650000000     0.037899   
H71      H      0.686810000000     0.739320000000     0.102960000000     0.0304515  
H72      H      0.851100000000     0.829990000000     0.320440000000     0.0399357  
H73      H      0.683690000000     0.316160000000     0.838960000000     0.028363   
H74      H      0.783630000000     0.186250000000     0.616840000000     0.0296756  
H75      H      0.738140000000     0.301730000000     0.732030000000     0.0385471  
H76      H      0.774230000000     0.221420000000     0.748670000000     0.0382584  
H77      H      0.764580000000     0.204380000000     0.678240000000     0.0548197  
H78      H      0.754230000000     0.239720000000     0.810170000000     0.0385442  
H79      H      0.797100000000     0.271490000000     0.645850000000     0.0584858  
H80      H      0.702670000000     0.297560000000     0.777090000000     0.053944   
H81      H      0.759500000000     0.272520000000     0.860610000000     0.0541379  
H82      H      0.757370000000     0.283060000000     0.670100000000     0.0377432  
H83      H      0.739800000000     0.290980000000     0.921780000000     0.0288156  
H84      H      0.809690000000     0.271130000000     0.539580000000     0.0388417  
H85      H      0.760980000000     0.200540000000     0.401690000000     0.0286755  
H86      H      0.738820000000     0.322440000000     0.090630000000     0.0305897  
H87      H      0.739510000000     0.219600000000     0.262360000000     0.0386951  
H88      H      0.756780000000     0.304640000000     0.231070000000     0.0380915  
H89      H      0.757210000000     0.304050000000     0.152850000000     0.0549559  
H90      H      0.776360000000     0.285190000000     0.292350000000     0.0384753  
H91      H      0.690750000000     0.269310000000     0.183180000000     0.0581716  
H92      H      0.740420000000     0.220080000000     0.341860000000     0.0538601  
H93      H      0.806600000000     0.254380000000     0.306050000000     0.0540407  
H94      H      0.720040000000     0.238990000000     0.200880000000     0.0378831  
H95      H      0.826470000000     0.234800000000     0.366450000000     0.0286141  
H96      H      0.658250000000     0.265350000000     0.091660000000     0.0417277  
H97      H      0.703930000000     0.609140000000     0.927310000000     0.0301611  
H98      H      0.678450000000     0.411710000000     0.053890000000     0.0301662  
H99      H      0.680620000000     0.532070000000     0.927690000000     0.0386857  
H100     H      0.709680000000     0.487740000000     0.056750000000     0.0381774  
H101     H      0.681070000000     0.454540000000     0.056150000000     0.0551181  
H102     H      0.709510000000     0.531250000000     0.057590000000     0.038622   
H103     H      0.708950000000     0.455190000000     0.926740000000     0.0584443  
H104     H      0.706960000000     0.566040000000     0.927330000000     0.0541449  
H105     H      0.681910000000     0.564610000000     0.059260000000     0.0539782  
H106     H      0.680950000000     0.488700000000     0.926800000000     0.0380655  
H107     H      0.679640000000     0.607850000000     0.058350000000     0.0282852  
H108     H      0.691970000000     0.404820000000     0.877120000000     0.041841   
H109     H      0.283490000000     0.669140000000     0.860050000000     0.0292843  
H110     H      0.233140000000     0.818750000000     0.604190000000     0.0304062  
H111     H      0.233660000000     0.716910000000     0.779100000000     0.0387911  
H112     H      0.281320000000     0.771370000000     0.686550000000     0.0381515  
H113     H      0.251750000000     0.800640000000     0.666510000000     0.0548087  
H114     H      0.299920000000     0.753060000000     0.749960000000     0.0389141  
H115     H      0.215880000000     0.734680000000     0.638380000000     0.0583293  
H116     H      0.264800000000     0.687190000000     0.796830000000     0.0542286  
H117     H      0.297530000000     0.754400000000     0.829700000000     0.0542488  
H118     H      0.214920000000     0.735420000000     0.716030000000     0.0379278  
H119     H      0.316100000000     0.735710000000     0.892440000000     0.0294741  
H120     H      0.166670000000     0.747170000000     0.579540000000     0.0423669  
H121     H      0.183270000000     0.770650000000     0.364060000000     0.0300474  
H122     H      0.332360000000     0.717850000000     0.110740000000     0.029466   
H123     H      0.231320000000     0.721900000000     0.285210000000     0.0385326  
H124     H      0.286170000000     0.768410000000     0.191470000000     0.0383853  
H125     H      0.315340000000     0.736630000000     0.173580000000     0.0550016  
H126     H      0.267930000000     0.787550000000     0.253940000000     0.0386158  
H127     H      0.246920000000     0.705880000000     0.143160000000     0.0585595  
H128     H      0.201880000000     0.751450000000     0.302660000000     0.0541237  
H129     H      0.267950000000     0.787980000000     0.331970000000     0.0537962  
H130     H      0.249340000000     0.702910000000     0.222480000000     0.0380667  
H131     H      0.248480000000     0.807350000000     0.392550000000     0.0285147  
H132     H      0.256690000000     0.656840000000     0.083690000000     0.041246   
H133     H      0.406140000000     0.703380000000     0.936890000000     0.0294582  
H134     H      0.606800000000     0.703310000000     0.040910000000     0.0314908  
H135     H      0.484380000000     0.686030000000     0.916570000000     0.0382526  
H136     H      0.530140000000     0.679440000000     0.053880000000     0.038043   
H137     H      0.563770000000     0.704250000000     0.041910000000     0.0548763  
H138     H      0.486680000000     0.679030000000     0.055880000000     0.0384607  
H139     H      0.561840000000     0.663640000000     0.924190000000     0.0581101  
H140     H      0.449390000000     0.706990000000     0.936330000000     0.0538118  
H141     H      0.453680000000     0.654520000000     0.038690000000     0.053863   
H142     H      0.527820000000     0.688080000000     0.914890000000     0.0375477  
H143     H      0.410390000000     0.652160000000     0.039420000000     0.0287088  
H144     H      0.613850000000     0.672790000000     0.871880000000     0.040779   
H145     H      0.179930000000     0.199550000000     0.628320000000     0.0305117  
H146     H      0.296570000000     0.317830000000     0.844520000000     0.0314197  
H147     H      0.227760000000     0.208470000000     0.747820000000     0.0385759  
H148     H      0.287800000000     0.272240000000     0.723810000000     0.038366   
H149     H      0.278320000000     0.298870000000     0.782940000000     0.0551717  
H150     H      0.268370000000     0.253740000000     0.661730000000     0.0386439  
H151     H      0.284710000000     0.230820000000     0.846310000000     0.0583929  
H152     H      0.199290000000     0.217270000000     0.690810000000     0.0541736  
H153     H      0.266510000000     0.216520000000     0.622480000000     0.0540186  
H154     H      0.246460000000     0.227680000000     0.809930000000     0.0378352  
H155     H      0.246410000000     0.199270000000     0.560240000000     0.0288003  
H156     H      0.287140000000     0.240430000000     0.953600000000     0.0399443  
H157     H      0.182580000000     0.234470000000     0.379980000000     0.0281578  
H158     H      0.321910000000     0.268020000000     0.098380000000     0.0311668  
H159     H      0.235300000000     0.277230000000     0.296090000000     0.0384683  
H160     H      0.266760000000     0.227340000000     0.176960000000     0.0382338  
H161     H      0.303160000000     0.249880000000     0.160280000000     0.0550312  
H162     H      0.248030000000     0.208220000000     0.239050000000     0.0387261  
H163     H      0.247680000000     0.302890000000     0.155960000000     0.0581428  
H164     H      0.200190000000     0.254500000000     0.317840000000     0.0537711  
H165     H      0.255700000000     0.201040000000     0.314900000000     0.0542267  
H166     H      0.253970000000     0.296380000000     0.233690000000     0.0377709  
H167     H      0.237360000000     0.181310000000     0.376240000000     0.030561   
H168     H      0.270520000000     0.351370000000     0.106330000000     0.0383125  
H169     H      0.598730000000     0.365240000000     0.984840000000     0.0288876  
H170     H      0.407040000000     0.310060000000     0.040950000000     0.0310569  
H171     H      0.524820000000     0.348760000000     0.927750000000     0.0385781  
H172     H      0.484800000000     0.286180000000     0.015230000000     0.0383902  
H173     H      0.450140000000     0.309720000000     0.040140000000     0.0552822  
H174     H      0.528380000000     0.289670000000     0.017520000000     0.0388687  
H175     H      0.449170000000     0.318710000000     0.902000000000     0.0585019  
H176     H      0.555610000000     0.360790000000     0.980610000000     0.0542069  
H177     H      0.564340000000     0.284590000000     0.971370000000     0.0542176  
H178     H      0.481300000000     0.345660000000     0.926270000000     0.0379581  
H179     H      0.607530000000     0.289700000000     0.976020000000     0.0287578  
H180     H      0.396770000000     0.343440000000     0.873310000000     0.0405633  
H181     H      0.307360000000     0.595760000000     0.043440000000     0.0286196  
H182     H      0.357250000000     0.398600000000     0.019410000000     0.0291416  
H183     H      0.286510000000     0.519000000000     0.005330000000     0.0386102  
H184     H      0.359500000000     0.473920000000     0.965430000000     0.0381162  
H185     H      0.356980000000     0.441520000000     0.019490000000     0.0547476  
H186     H      0.360250000000     0.517360000000     0.963970000000     0.0386823  
H187     H      0.287800000000     0.441320000000     0.958240000000     0.0584738  
H188     H      0.305230000000     0.552520000000     0.044290000000     0.054014   
H189     H      0.342960000000     0.550820000000     0.922800000000     0.0543572  
H190     H      0.285960000000     0.475470000000     0.007890000000     0.0377435  
H191     H      0.344970000000     0.594060000000     0.923240000000     0.0289802  
H192     H      0.261540000000     0.389140000000     0.984780000000     0.0389918  
In1      In     0.330170000000     0.322230000000     0.983660000000     2.41782    
In2      In     0.332670000000     0.670200000000     0.985940000000     2.4119     
In3      In     0.678450000000     0.336540000000     0.988090000000     2.41147    
In4      In     0.682760000000     0.683540000000     0.988020000000     2.41579    
In5      In     0.829130000000     0.183960000000     0.489590000000     2.42038    
In6      In     0.832740000000     0.836410000000     0.488490000000     2.40801    
In7      In     0.181920000000     0.823140000000     0.483850000000     2.4193     
In8      In     0.177980000000     0.171320000000     0.483590000000     2.40219    
N1       N      0.189010000000     0.895720000000     0.484160000000    -0.199472   
N2       N      0.184510000000     0.098960000000     0.488510000000    -0.196287   
N3       N      0.905050000000     0.824620000000     0.488940000000    -0.199364   
N4       N      0.109110000000     0.819420000000     0.482770000000    -0.19572    
N5       N      0.820350000000     0.111750000000     0.495730000000    -0.198867   
N6       N      0.824970000000     0.908450000000     0.497900000000    -0.196678   
N7       N      0.901940000000     0.186300000000     0.477370000000    -0.199365   
N8       N      0.106000000000     0.181650000000     0.473710000000    -0.19526    
N9       N      0.710130000000     0.720530000000     0.885000000000    -0.199968   
N10      N      0.797470000000     0.806070000000     0.589530000000    -0.19505    
N11      N      0.805150000000     0.805230000000     0.379640000000    -0.199122   
N12      N      0.715850000000     0.715320000000     0.090460000000    -0.195524   
N13      N      0.801240000000     0.218150000000     0.594810000000    -0.200071   
N14      N      0.710380000000     0.304890000000     0.884710000000    -0.196645   
N15      N      0.704210000000     0.306390000000     0.099600000000    -0.199241   
N16      N      0.795140000000     0.216300000000     0.388330000000    -0.196345   
N17      N      0.691480000000     0.408270000000     0.988790000000    -0.199828   
N18      N      0.691400000000     0.611530000000     0.992690000000    -0.195651   
N19      N      0.213230000000     0.787670000000     0.585120000000    -0.19938    
N20      N      0.301120000000     0.701120000000     0.880680000000    -0.195749   
N21      N      0.299810000000     0.700750000000     0.090150000000    -0.200228   
N22      N      0.214530000000     0.790370000000     0.382620000000    -0.195473   
N23      N      0.609670000000     0.683400000000     0.981810000000    -0.198837   
N24      N      0.405210000000     0.677490000000     0.988090000000    -0.195839   
N25      N      0.301060000000     0.285690000000     0.881870000000    -0.199457   
N26      N      0.211760000000     0.198250000000     0.589820000000    -0.19519    
N27      N      0.295960000000     0.296060000000     0.090640000000    -0.199375   
N28      N      0.208630000000     0.206430000000     0.382350000000    -0.19552    
N29      N      0.402700000000     0.315160000000     0.972320000000    -0.199294   
N30      N      0.606180000000     0.327800000000     0.980690000000    -0.195838   
N31      N      0.322910000000     0.394660000000     0.988490000000    -0.199038   
N32      N      0.326430000000     0.597960000000     0.983450000000    -0.195701   
O1       O      0.326680000000     0.296400000000     0.040530000000    -0.497028   
O2       O      0.299850000000     0.322600000000     0.033060000000    -0.50902    
O3       O      0.314280000000     0.320100000000     0.915540000000    -0.497115   
O4       O      0.310050000000     0.356750000000     0.968910000000    -0.491739   
O5       O      0.367440000000     0.315420000000     0.011500000000    -0.496464   
O6       O      0.342270000000     0.359240000000     0.004690000000    -0.510266   
O7       O      0.317460000000     0.288040000000     0.951020000000    -0.510011   
O8       O      0.364480000000     0.320820000000     0.943970000000    -0.509114   
O9       O      0.324730000000     0.702180000000     0.942180000000    -0.500203   
O10      O      0.309190000000     0.668960000000     0.925270000000    -0.501787   
O11      O      0.299920000000     0.678010000000     0.027420000000    -0.505113   
O12      O      0.320210000000     0.634800000000     0.014560000000    -0.501159   
O13      O      0.367640000000     0.686040000000     0.960660000000    -0.498944   
O14      O      0.338310000000     0.634000000000     0.954170000000    -0.500488   
O15      O      0.332840000000     0.692800000000     0.047460000000    -0.507839   
O16      O      0.369660000000     0.662260000000     0.014200000000    -0.503326   
O17      O      0.674500000000     0.312910000000     0.047950000000    -0.502758   
O18      O      0.707420000000     0.330790000000     0.039290000000    -0.500202   
O19      O      0.680260000000     0.326980000000     0.916230000000    -0.502412   
O20      O      0.644940000000     0.313340000000     0.981350000000    -0.495483   
O21      O      0.679730000000     0.372860000000     0.021110000000    -0.500842   
O22      O      0.640250000000     0.350740000000     0.987540000000    -0.506614   
O23      O      0.708150000000     0.314500000000     0.957160000000    -0.506369   
O24      O      0.691390000000     0.370950000000     0.956260000000    -0.506974   
O25      O      0.714110000000     0.687680000000     0.035280000000    -0.505019   
O26      O      0.684440000000     0.710920000000     0.042380000000    -0.49732    
O27      O      0.711060000000     0.690480000000     0.936480000000    -0.502667   
O28      O      0.693180000000     0.648020000000     0.958170000000    -0.498646   
O29      O      0.645820000000     0.691550000000     0.015590000000    -0.494968   
O30      O      0.681880000000     0.647740000000     0.023750000000    -0.50532    
O31      O      0.681680000000     0.714030000000     0.938580000000    -0.507402   
O32      O      0.647440000000     0.675860000000     0.953580000000    -0.505437   
O33      O      0.795950000000     0.191580000000     0.448280000000    -0.501772   
O34      O      0.828520000000     0.208260000000     0.430160000000    -0.505978   
O35      O      0.807470000000     0.184890000000     0.552150000000    -0.508157   
O36      O      0.813570000000     0.149000000000     0.464740000000    -0.49839    
O37      O      0.863790000000     0.175640000000     0.454210000000    -0.505396   
O38      O      0.834920000000     0.147690000000     0.521400000000    -0.504474   
O39      O      0.823820000000     0.216880000000     0.531760000000    -0.505244   
O40      O      0.866430000000     0.195280000000     0.512270000000    -0.501714   
O41      O      0.811780000000     0.807220000000     0.453560000000    -0.507065   
O42      O      0.826620000000     0.834760000000     0.415440000000    -0.492701   
O43      O      0.827570000000     0.807100000000     0.538580000000    -0.494623   
O44      O      0.868110000000     0.828240000000     0.522590000000    -0.494209   
O45      O      0.814140000000     0.871570000000     0.471120000000    -0.499986   
O46      O      0.868820000000     0.831900000000     0.454660000000    -0.50498    
O47      O      0.802350000000     0.835540000000     0.537770000000    -0.504194   
O48      O      0.842720000000     0.872690000000     0.516420000000    -0.509923   
O49      O      0.186990000000     0.790320000000     0.526680000000    -0.505038   
O50      O      0.207960000000     0.820670000000     0.540810000000    -0.503592   
O51      O      0.182180000000     0.797380000000     0.427040000000    -0.500864   
O52      O      0.145680000000     0.825110000000     0.449750000000    -0.501312   
O53      O      0.190220000000     0.858630000000     0.450850000000    -0.503629   
O54      O      0.145900000000     0.817000000000     0.516920000000    -0.502152   
O55      O      0.214280000000     0.816300000000     0.440570000000    -0.502332   
O56      O      0.181640000000     0.859370000000     0.517300000000    -0.50422    
O57      O      0.179660000000     0.202320000000     0.435140000000    -0.504725   
O58      O      0.206700000000     0.175770000000     0.432170000000    -0.494898   
O59      O      0.178410000000     0.184250000000     0.553580000000    -0.490992   
O60      O      0.143420000000     0.190640000000     0.501180000000    -0.491949   
O61      O      0.184090000000     0.135040000000     0.452430000000    -0.496884   
O62      O      0.141300000000     0.163220000000     0.454120000000    -0.505022   
O63      O      0.211310000000     0.184450000000     0.519480000000    -0.504071   
O64      O      0.178600000000     0.135720000000     0.520270000000    -0.507199   
S1       S      0.200610000000     0.896530000000     0.396480000000    -0.0298743  
S2       S      0.905110000000     0.814940000000     0.577500000000    -0.027123   
S3       S      0.787000000000     0.112330000000     0.428440000000    -0.0275634  
S4       S      0.900420000000     0.156290000000     0.405700000000    -0.0316685  
S5       S      0.673350000000     0.754040000000     0.887640000000    -0.033453   
S6       S      0.828150000000     0.837970000000     0.325950000000    -0.0274911  
S7       S      0.823210000000     0.260950000000     0.571800000000    -0.0295097  
S8       S      0.660280000000     0.285040000000     0.117500000000    -0.0315608  
S9       S      0.710650000000     0.407000000000     0.905680000000    -0.0327444  
S10      S      0.189580000000     0.745480000000     0.564220000000    -0.0324823  
S11      S      0.256100000000     0.679820000000     0.068610000000    -0.0308358  
S12      S      0.610010000000     0.657200000000     0.905370000000    -0.0328457  
S13      S      0.305840000000     0.242260000000     0.925240000000    -0.0312315  
S14      S      0.261190000000     0.331640000000     0.086470000000    -0.0329276  
S15      S      0.400440000000     0.319810000000     0.882540000000    -0.0319509  
S16      S      0.277360000000     0.392850000000     0.951660000000    -0.0265333  


