data_structure

_audit_creation_method RASPA-1.0
_audit_creation_date 2023-5-22
_audit_author_name 'Poobodin Mano'

_cell_length_a    43.5813
_cell_length_b    47.8873
_cell_length_c    44.018
_cell_angle_alpha 90
_cell_angle_beta  90
_cell_angle_gamma 90
_cell_volume      91865.2

_symmetry_cell_setting          triclinic
_symmetry_space_group_name_Hall 'P 1'
_symmetry_space_group_name_H-M  'P 1'
_symmetry_Int_Tables_number     1

_symmetry_equiv_pos_as_xyz 'x,y,z'

loop_
_atom_site_label
_atom_site_type_symbol
_atom_site_fract_x
_atom_site_fract_y
_atom_site_fract_z
_atom_site_charge
C1       C      0.919840000000     0.384920000000     0.923280000000     0.416642   
C2       C      0.924700000000     0.312460000000     0.852820000000     0.414432   
C3       C      0.856260000000     0.315750000000     0.923600000000     0.416213   
C4       C      0.858660000000     0.380270000000     0.846140000000     0.412137   
C5       C      0.103350000000     0.563710000000     0.103950000000     0.416254   
C6       C      0.179770000000     0.564800000000     0.171870000000     0.415094   
C7       C      0.181850000000     0.626030000000     0.102570000000     0.41561    
C8       C      0.105530000000     0.631230000000     0.168900000000     0.418178   
C9       C      0.434920000000     0.812780000000     0.857300000000     0.421888   
C10      C      0.363740000000     0.810070000000     0.926660000000     0.419419   
C11      C      0.427340000000     0.882870000000     0.924020000000     0.418913   
C12      C      0.358190000000     0.875740000000     0.853840000000     0.420482   
C13      C      0.679970000000     0.132500000000     0.106200000000     0.413654   
C14      C      0.610480000000     0.062910000000     0.104190000000     0.419302   
C15      C      0.678860000000     0.065610000000     0.177090000000     0.415467   
C16      C      0.607630000000     0.130800000000     0.173450000000     0.416278   
C17      C      0.357060000000     0.383440000000     0.355690000000     0.418085   
C18      C      0.420970000000     0.308250000000     0.352800000000     0.414772   
C19      C      0.427930000000     0.380280000000     0.419380000000     0.415682   
C20      C      0.357530000000     0.310550000000     0.423490000000     0.415503   
C21      C      0.676050000000     0.559200000000     0.665130000000     0.413518   
C22      C      0.610650000000     0.633090000000     0.670150000000     0.41724    
C23      C      0.674930000000     0.632740000000     0.598580000000     0.411849   
C24      C      0.608470000000     0.562090000000     0.599600000000     0.415617   
C25      C      0.928900000000     0.810450000000     0.355740000000     0.413013   
C26      C      0.862800000000     0.884780000000     0.355280000000     0.413733   
C27      C      0.860950000000     0.813140000000     0.422100000000     0.4122     
C28      C      0.931240000000     0.884160000000     0.420430000000     0.415864   
C29      C      0.176250000000     0.057920000000     0.675990000000     0.414195   
C30      C      0.181830000000     0.130680000000     0.610760000000     0.420774   
C31      C      0.109320000000     0.062590000000     0.607250000000     0.414595   
C32      C      0.111380000000     0.131510000000     0.677400000000     0.416857   
C33      C      0.990290000000     0.935870000000     0.443880000000    -0.103195   
C34      C      0.068450000000     0.030120000000     0.601670000000     0.0761801  
C35      C      0.097070000000     0.044380000000     0.558570000000     0.0762046  
C36      C      0.050320000000     0.012730000000     0.583570000000    -0.0942571  
C37      C      0.028110000000     0.965830000000     0.542570000000    -0.0350154  
C38      C      0.010740000000     0.948290000000     0.523910000000    -0.0339047  
C39      C      0.036830000000     0.992570000000     0.532550000000    -0.00621354 
C40      C      0.079420000000     0.027220000000     0.539810000000    -0.0942185  
C41      C      0.001720000000     0.957040000000     0.494760000000    -0.00835529 
C42      C      0.959300000000     0.922600000000     0.486540000000    -0.0965184  
C43      C      0.010300000000     0.983810000000     0.484780000000    -0.0340041  
C44      C      0.942480000000     0.905020000000     0.467600000000     0.0749634  
C45      C      0.973130000000     0.917970000000     0.425110000000     0.101234   
C46      C      0.027620000000     0.001370000000     0.503460000000    -0.0349684  
C47      C      0.055700000000     0.011090000000     0.552220000000     0.0509943  
C48      C      0.983510000000     0.938270000000     0.474800000000     0.0554472  
C49      C      0.700680000000     0.678710000000     0.535560000000    -0.103538   
C50      C      0.854620000000     0.784000000000     0.465330000000     0.0756473  
C51      C      0.813580000000     0.789920000000     0.430550000000     0.0758461  
C52      C      0.836600000000     0.766380000000     0.483260000000    -0.0940283  
C53      C      0.799220000000     0.717840000000     0.507560000000    -0.0349646  
C54      C      0.780690000000     0.700190000000     0.524970000000    -0.0340869  
C55      C      0.786760000000     0.741630000000     0.493420000000    -0.00619718 
C56      C      0.794990000000     0.772290000000     0.447840000000    -0.0941238  
C57      C      0.749250000000     0.705830000000     0.528490000000    -0.00828804 
C58      C      0.739040000000     0.676700000000     0.574590000000    -0.09649    
C59      C      0.736790000000     0.729640000000     0.514510000000    -0.0341859  
C60      C      0.720080000000     0.658960000000     0.591240000000     0.0743052  
C61      C      0.681940000000     0.660660000000     0.552550000000     0.100996   
C62      C      0.755340000000     0.747370000000     0.497260000000    -0.0348634  
C63      C      0.806360000000     0.760310000000     0.474630000000     0.0508344  
C64      C      0.729420000000     0.686810000000     0.546470000000     0.0553529  
C65      C      0.249500000000     0.168080000000     0.579380000000    -0.103205   
C66      C      0.309770000000     0.290520000000     0.437620000000     0.076287   
C67      C      0.355110000000     0.277960000000     0.464110000000     0.0761651  
C68      C      0.292340000000     0.272960000000     0.456170000000    -0.0941243  
C69      C      0.259810000000     0.247380000000     0.510590000000    -0.0350482  
C70      C      0.242670000000     0.229790000000     0.529390000000    -0.0337903  
C71      C      0.288410000000     0.238770000000     0.499180000000    -0.00610844 
C72      C      0.338400000000     0.260110000000     0.482980000000    -0.0942535  
C73      C      0.253680000000     0.203120000000     0.537160000000    -0.0082024  
C74      C      0.203580000000     0.182420000000     0.553690000000    -0.0965548  
C75      C      0.282300000000     0.194520000000     0.525710000000    -0.0338425  
C76      C      0.186710000000     0.164540000000     0.572250000000     0.0753895  
C77      C      0.232120000000     0.150130000000     0.597890000000     0.101302   
C78      C      0.299480000000     0.212160000000     0.506990000000    -0.0350365  
C79      C      0.306610000000     0.257490000000     0.479190000000     0.0511169  
C80      C      0.235350000000     0.184300000000     0.557000000000     0.055401   
C81      C      0.492690000000     0.425860000000     0.442890000000    -0.103499   
C82      C      0.561980000000     0.537580000000     0.590700000000     0.0770728  
C83      C      0.603260000000     0.533380000000     0.555910000000     0.0768207  
C84      C      0.544100000000     0.519560000000     0.573140000000    -0.094126   
C85      C      0.505410000000     0.493750000000     0.523500000000    -0.0347941  
C86      C      0.487710000000     0.475780000000     0.505650000000    -0.0340033  
C87      C      0.537120000000     0.489220000000     0.527050000000    -0.00606601 
C88      C      0.585940000000     0.515460000000     0.537670000000    -0.0940873  
C89      C      0.501350000000     0.453030000000     0.490710000000    -0.00827824 
C90      C      0.454540000000     0.423910000000     0.482140000000    -0.0967558  
C91      C      0.533000000000     0.448510000000     0.494100000000    -0.0340365  
C92      C      0.437260000000     0.405910000000     0.464100000000     0.075355   
C93      C      0.474850000000     0.407870000000     0.424890000000     0.100938   
C94      C      0.550670000000     0.466330000000     0.512160000000    -0.0348153  
C95      C      0.555940000000     0.508290000000     0.546180000000     0.0512416  
C96      C      0.482580000000     0.434050000000     0.471640000000     0.0555866  
C97      C      0.712050000000     0.030950000000     0.245110000000    -0.10331    
C98      C      0.850830000000     0.905760000000     0.307840000000     0.0761471  
C99      C      0.823090000000     0.918620000000     0.352020000000     0.0761033  
C100     C      0.833150000000     0.923890000000     0.290190000000    -0.0939426  
C101     C      0.803320000000     0.974690000000     0.261500000000    -0.0350415  
C102     C      0.785000000000     0.992450000000     0.243990000000    -0.0339695  
C103     C      0.790450000000     0.958870000000     0.285220000000    -0.00605455 
C104     C      0.805060000000     0.937030000000     0.335080000000    -0.09407    
C105     C      0.753430000000     0.994890000000     0.249890000000    -0.00827756 
C106     C      0.736930000000     0.014660000000     0.199840000000    -0.0965716  
C107     C      0.740550000000     0.979130000000     0.273610000000    -0.0339951  
C108     C      0.718150000000     0.032190000000     0.182720000000     0.0751674  
C109     C      0.693410000000     0.048610000000     0.227520000000     0.100715   
C110     C      0.758820000000     0.961290000000     0.291020000000    -0.0349361  
C111     C      0.809840000000     0.939770000000     0.303730000000     0.0509272  
C112     C      0.733930000000     0.013780000000     0.231360000000     0.0553605  
C113     C      0.442020000000     0.254800000000     0.295200000000    -0.103394   
C114     C      0.601760000000     0.165950000000     0.211060000000     0.0775426  
C115     C      0.557830000000     0.146230000000     0.187610000000     0.0764518  
C116     C      0.583240000000     0.183310000000     0.228760000000    -0.0943385  
C117     C      0.539740000000     0.228520000000     0.250120000000    -0.0348617  
C118     C      0.521120000000     0.245840000000     0.267790000000    -0.0339792  
C119     C      0.531190000000     0.200710000000     0.244330000000    -0.00613611 
C120     C      0.538620000000     0.163340000000     0.204900000000    -0.0940585  
C121     C      0.493430000000     0.235800000000     0.279990000000    -0.00816885 
C122     C      0.486930000000     0.271320000000     0.321110000000    -0.0965806  
C123     C      0.484730000000     0.208070000000     0.274050000000    -0.0340512  
C124     C      0.468430000000     0.288680000000     0.338660000000     0.075259   
C125     C      0.423700000000     0.272550000000     0.313060000000     0.101417   
C126     C      0.503430000000     0.190710000000     0.256460000000    -0.0347965  
C127     C      0.551240000000     0.182220000000     0.225790000000     0.0512652  
C128     C      0.473850000000     0.254200000000     0.299010000000     0.0554832  
C129     C      0.291110000000     0.902010000000     0.810270000000    -0.103645   
C130     C      0.192000000000     0.040630000000     0.724090000000     0.0761915  
C131     C      0.210630000000     0.019500000000     0.678980000000     0.076487   
C132     C      0.209470000000     0.022390000000     0.741780000000    -0.0942877  
C133     C      0.264380000000     0.993230000000     0.770710000000    -0.0350546  
C134     C      0.282580000000     0.975230000000     0.788000000000    -0.0337742  
C135     C      0.247020000000     0.982980000000     0.746230000000    -0.00627752 
C136     C      0.228160000000     0.000730000000     0.695990000000    -0.0943822  
C137     C      0.283580000000     0.946540000000     0.781360000000    -0.00854447 
C138     C      0.332850000000     0.934580000000     0.807370000000    -0.0970626  
C139     C      0.266120000000     0.936250000000     0.756960000000    -0.0339034  
C140     C      0.350580000000     0.916570000000     0.824960000000     0.0759437  
C141     C      0.309240000000     0.884190000000     0.828210000000     0.101254   
C142     C      0.248140000000     0.954310000000     0.739470000000    -0.0351604  
C143     C      0.227900000000     0.002190000000     0.727770000000     0.051252   
C144     C      0.302780000000     0.927440000000     0.799890000000     0.055784   
C145     C      0.493950000000     0.761010000000     0.834180000000    -0.103662   
C146     C      0.571920000000     0.667510000000     0.676040000000     0.0758238  
C147     C      0.600770000000     0.652670000000     0.718770000000     0.0755331  
C148     C      0.555030000000     0.685820000000     0.694200000000    -0.0941325  
C149     C      0.511140000000     0.710030000000     0.740490000000    -0.0349369  
C150     C      0.494060000000     0.727890000000     0.759030000000    -0.0339389  
C151     C      0.542850000000     0.706590000000     0.745180000000    -0.00608135 
C152     C      0.584230000000     0.670680000000     0.737630000000    -0.0939407  
C153     C      0.508240000000     0.742620000000     0.782790000000    -0.00833014 
C154     C      0.468200000000     0.779410000000     0.790360000000    -0.0968769  
C155     C      0.539900000000     0.739210000000     0.787540000000    -0.0339664  
C156     C      0.450800000000     0.796480000000     0.809330000000     0.0751382  
C157     C      0.476110000000     0.778290000000     0.852990000000     0.10187    
C158     C      0.557030000000     0.721440000000     0.768910000000    -0.0350365  
C159     C      0.560970000000     0.687520000000     0.725440000000     0.0508245  
C160     C      0.489940000000     0.761310000000     0.802700000000     0.0556169  
C161     C      0.448500000000     0.940230000000     0.976910000000    -0.103301   
C162     C      0.589510000000     0.050900000000     0.056100000000     0.0759278  
C163     C      0.578900000000     0.022760000000     0.099170000000     0.0764968  
C164     C      0.571460000000     0.033600000000     0.037840000000    -0.0943097  
C165     C      0.545970000000     0.984750000000     0.001780000000    -0.0350167  
C166     C      0.527590000000     0.967290000000     0.983980000000    -0.0338842  
C167     C      0.537160000000     0.991810000000     0.031540000000    -0.00616217 
C168     C      0.560740000000     0.005000000000     0.081580000000    -0.09438    
C169     C      0.499950000000     0.956460000000     0.995520000000    -0.00813137 
C170     C      0.493670000000     0.917200000000     0.958410000000    -0.0963867  
C171     C      0.491130000000     0.963540000000     0.025260000000    -0.0338469  
C172     C      0.475140000000     0.899600000000     0.941120000000     0.0753335  
C173     C      0.430150000000     0.922280000000     0.959340000000     0.102036   
C174     C      0.509490000000     0.981010000000     0.043040000000    -0.0349008  
C175     C      0.556720000000     0.010340000000     0.050530000000     0.0510757  
C176     C      0.480460000000     0.937740000000     0.976680000000     0.0554944  
C177     C      0.069360000000     0.694840000000     0.201250000000    -0.103377   
C178     C      0.932280000000     0.778220000000     0.314880000000     0.075971   
C179     C      0.975840000000     0.786990000000     0.345710000000     0.0757975  
C180     C      0.949160000000     0.759700000000     0.296960000000    -0.0942169  
C181     C      0.986490000000     0.710780000000     0.272940000000    -0.034958   
C182     C      0.003790000000     0.693460000000     0.253940000000    -0.0342498  
C183     C      0.998790000000     0.736000000000     0.283890000000    -0.00604899 
C184     C      0.993430000000     0.768640000000     0.328240000000    -0.0939977  
C185     C      0.033740000000     0.701030000000     0.245390000000    -0.00819832 
C186     C      0.052130000000     0.654070000000     0.227920000000    -0.0964694  
C187     C      0.046120000000     0.726100000000     0.256580000000    -0.0338603  
C188     C      0.069900000000     0.637610000000     0.208600000000     0.0749641  
C189     C      0.087050000000     0.677950000000     0.181920000000     0.101097   
C190     C      0.028870000000     0.743380000000     0.275600000000    -0.035084   
C191     C      0.980190000000     0.754850000000     0.303400000000     0.0509108  
C192     C      0.051960000000     0.683040000000     0.224610000000     0.0552788  
C193     C      0.329100000000     0.774550000000     0.993440000000    -0.103041   
C194     C      0.200990000000     0.639750000000     0.054270000000     0.0763947  
C195     C      0.220230000000     0.661050000000     0.099020000000     0.0773495  
C196     C      0.219680000000     0.656760000000     0.036320000000    -0.0940712  
C197     C      0.246580000000     0.707270000000     0.004300000000    -0.0348081  
C198     C      0.264310000000     0.725810000000     0.987180000000    -0.033823   
C199     C      0.258160000000     0.695610000000     0.031290000000    -0.00608253 
C200     C      0.239150000000     0.678420000000     0.081770000000    -0.0942207  
C201     C      0.294000000000     0.733210000000     0.996710000000    -0.00813448 
C202     C      0.313660000000     0.751890000000     0.947300000000    -0.0965887  
C203     C      0.305710000000     0.721380000000     0.023530000000    -0.0340065  
C204     C      0.331050000000     0.771090000000     0.930890000000     0.0758982  
C205     C      0.346430000000     0.793820000000     0.976530000000     0.100824   
C206     C      0.288020000000     0.702760000000     0.040600000000    -0.0349     
C207     C      0.238920000000     0.676580000000     0.050000000000     0.051265   
C208     C      0.312550000000     0.753440000000     0.978900000000     0.0555983  
C209     C      0.302090000000     0.439050000000     0.333190000000    -0.103253   
C210     C      0.219670000000     0.531270000000     0.176430000000     0.0766251  
C211     C      0.195370000000     0.548970000000     0.220620000000     0.0759717  
C212     C      0.238230000000     0.513940000000     0.194140000000    -0.0943106  
C213     C      0.260000000000     0.467510000000     0.235840000000    -0.0348215  
C214     C      0.277300000000     0.449600000000     0.254130000000    -0.0339261  
C215     C      0.254180000000     0.495140000000     0.245010000000    -0.00619197 
C216     C      0.213550000000     0.531910000000     0.239020000000    -0.094087   
C217     C      0.289150000000     0.458880000000     0.282060000000    -0.00811071 
C218     C      0.328710000000     0.421540000000     0.289460000000    -0.0963205  
C219     C      0.283550000000     0.486560000000     0.291140000000    -0.0340504  
C220     C      0.344950000000     0.403360000000     0.308240000000     0.074936   
C221     C      0.318640000000     0.420560000000     0.351790000000     0.101212   
C222     C      0.266270000000     0.504480000000     0.272830000000    -0.0349855  
C223     C      0.235200000000     0.513980000000     0.225830000000     0.0510963  
C224     C      0.306950000000     0.439620000000     0.301820000000     0.0553296  
C225     C      0.086840000000     0.181550000000     0.737170000000    -0.102991   
C226     C      0.930670000000     0.282800000000     0.809920000000     0.0753102  
C227     C      0.971900000000     0.288930000000     0.844450000000     0.0760976  
C228     C      0.948540000000     0.264930000000     0.792110000000    -0.0942623  
C229     C      0.986700000000     0.215490000000     0.769800000000    -0.0349775  
C230     C      0.005350000000     0.197790000000     0.752550000000    -0.0342052  
C231     C      0.998440000000     0.240540000000     0.781700000000    -0.00614661 
C232     C      0.990460000000     0.271320000000     0.827080000000    -0.0941371  
C233     C      0.036140000000     0.204810000000     0.746690000000    -0.00800716 
C234     C      0.044980000000     0.171510000000     0.703530000000    -0.0960681  
C235     C      0.047720000000     0.230060000000     0.758310000000    -0.0340345  
C236     C      0.064080000000     0.153630000000     0.687170000000     0.0745134  
C237     C      0.105810000000     0.163540000000     0.720360000000     0.100781   
C238     C      0.029120000000     0.247660000000     0.775680000000    -0.0351967  
C239     C      0.978880000000     0.259120000000     0.800530000000     0.0508597  
C240     C      0.056230000000     0.185750000000     0.728840000000     0.0549678  
C241     C      0.792380000000     0.286490000000     0.969550000000    -0.102964   
C242     C      0.728160000000     0.143880000000     0.084120000000     0.0751969  
C243     C      0.685730000000     0.174360000000     0.077890000000     0.0762702  
C244     C      0.746730000000     0.161720000000     0.067010000000    -0.0940819  
C245     C      0.774050000000     0.195420000000     0.014710000000    -0.0351108  
C246     C      0.791330000000     0.213680000000     0.996760000000    -0.0338127  
C247     C      0.753820000000     0.205810000000     0.036860000000    -0.00616443 
C248     C      0.703660000000     0.192720000000     0.060820000000    -0.0943845  
C249     C      0.788810000000     0.242740000000     0.000620000000    -0.00816537 
C250     C      0.836540000000     0.256730000000     0.972570000000    -0.0961893  
C251     C      0.769000000000     0.253080000000     0.023190000000    -0.0339551  
C252     C      0.852330000000     0.275130000000     0.953620000000     0.0744499  
C253     C      0.808630000000     0.304820000000     0.950540000000     0.100965   
C254     C      0.751680000000     0.234840000000     0.041050000000    -0.035114   
C255     C      0.734560000000     0.186520000000     0.055170000000     0.0508915  
C256     C      0.806220000000     0.262260000000     0.980740000000     0.0552347  
C257     C      0.700390000000     0.499420000000     0.713170000000    -0.103475   
C258     C      0.855470000000     0.419800000000     0.813640000000     0.0751933  
C259     C      0.812210000000     0.390410000000     0.820260000000     0.0762148  
C260     C      0.838720000000     0.437160000000     0.794250000000    -0.0938384  
C261     C      0.792890000000     0.479040000000     0.769510000000    -0.034868   
C262     C      0.774660000000     0.496600000000     0.751690000000    -0.0339681  
C263     C      0.789270000000     0.449860000000     0.768120000000    -0.00605177 
C264     C      0.794740000000     0.407390000000     0.801160000000    -0.0937912  
C265     C      0.752240000000     0.485420000000     0.732260000000    -0.00825862 
C266     C      0.744080000000     0.526760000000     0.698430000000    -0.0965857  
C267     C      0.748830000000     0.456290000000     0.730550000000    -0.0341784  
C268     C      0.724680000000     0.544270000000     0.681960000000     0.074657   
C269     C      0.681150000000     0.517400000000     0.696630000000     0.101468   
C270     C      0.767220000000     0.438720000000     0.748170000000    -0.0348918  
C271     C      0.807870000000     0.431190000000     0.787920000000     0.0507303  
C272     C      0.732000000000     0.504100000000     0.714310000000     0.055441   
C273     C      0.941550000000     0.430700000000     0.988000000000    -0.103166   
C274     C      0.065300000000     0.558830000000     0.065630000000     0.0759822  
C275     C      0.083850000000     0.518850000000     0.091570000000     0.0758034  
C276     C      0.045980000000     0.542160000000     0.047930000000    -0.094251   
C277     C      0.022520000000     0.499770000000     0.001870000000    -0.0350154  
C278     C      0.004380000000     0.482200000000     0.983980000000    -0.0341013  
C279     C      0.025590000000     0.494970000000     0.033240000000    -0.00624103 
C280     C      0.064780000000     0.501580000000     0.074350000000    -0.09435    
C281     C      0.988810000000     0.459460000000     0.997050000000    -0.00810673 
C282     C      0.980660000000     0.431510000000     0.949670000000    -0.0963296  
C283     C      0.991620000000     0.454830000000     0.028460000000    -0.0338808  
C284     C      0.963150000000     0.413180000000     0.932230000000     0.0750965  
C285     C      0.924150000000     0.412270000000     0.970090000000     0.100468   
C286     C      0.009820000000     0.472360000000     0.046340000000    -0.0351973  
C287     C      0.045590000000     0.513150000000     0.052130000000     0.05092    
C288     C      0.970040000000     0.440390000000     0.977940000000     0.0551367  
H1       H      0.115290000000     0.056440000000     0.548090000000     0.0296622  
H2       H      0.923920000000     0.893420000000     0.478110000000     0.0315856  
H3       H      0.033490000000     0.022000000000     0.495220000000     0.0389235  
H4       H      0.004840000000     0.927650000000     0.532110000000     0.0387237  
H5       H      0.953040000000     0.924110000000     0.510300000000     0.0551257  
H6       H      0.035200000000     0.958220000000     0.564650000000     0.0387596  
H7       H      0.009310000000     0.947730000000     0.434520000000     0.0582179  
H8       H      0.084690000000     0.026320000000     0.515780000000     0.0544118  
H9       H      0.031980000000     0.000910000000     0.594070000000     0.0542348  
H10      H      0.003280000000     0.991340000000     0.462640000000     0.0387101  
H11      H      0.063550000000     0.030860000000     0.625810000000     0.0289523  
H12      H      0.803930000000     0.798760000000     0.409980000000     0.0295048  
H13      H      0.728810000000     0.651810000000     0.612970000000     0.0316937  
H14      H      0.745070000000     0.765780000000     0.487210000000     0.038831   
H15      H      0.790850000000     0.681820000000     0.535200000000     0.0388867  
H16      H      0.761060000000     0.682730000000     0.583960000000     0.0550321  
H17      H      0.823200000000     0.712530000000     0.504730000000     0.0386028  
H18      H      0.693080000000     0.686290000000     0.513560000000     0.0584814  
H19      H      0.771960000000     0.767840000000     0.439980000000     0.0542541  
H20      H      0.846240000000     0.757920000000     0.503980000000     0.0541141  
H21      H      0.712730000000     0.734740000000     0.517210000000     0.0388748  
H22      H      0.877850000000     0.788270000000     0.472830000000     0.0295621  
H23      H      0.379640000000     0.279550000000     0.467850000000     0.0291911  
H24      H      0.162140000000     0.163860000000     0.568360000000     0.0306419  
H25      H      0.321230000000     0.204760000000     0.498220000000     0.0390556  
H26      H      0.220960000000     0.237250000000     0.538190000000     0.0385447  
H27      H      0.191690000000     0.194370000000     0.536430000000     0.0549777  
H28      H      0.250860000000     0.267930000000     0.505360000000     0.0392326  
H29      H      0.274120000000     0.169790000000     0.582680000000     0.0582972  
H30      H      0.350280000000     0.248750000000     0.500710000000     0.0546045  
H31      H      0.267870000000     0.271280000000     0.452220000000     0.0546603  
H32      H      0.291230000000     0.173950000000     0.530820000000     0.038915   
H33      H      0.297900000000     0.302100000000     0.420010000000     0.0299421  
H34      H      0.626330000000     0.538480000000     0.548510000000     0.0297089  
H35      H      0.415670000000     0.398700000000     0.473520000000     0.0310018  
H36      H      0.574880000000     0.461880000000     0.514780000000     0.0387695  
H37      H      0.463410000000     0.479950000000     0.503130000000     0.0389815  
H38      H      0.446080000000     0.429580000000     0.504450000000     0.0555176  
H39      H      0.494270000000     0.511430000000     0.534150000000     0.038932   
H40      H      0.514450000000     0.433770000000     0.434470000000     0.0584637  
H41      H      0.595920000000     0.507640000000     0.516820000000     0.054451   
H42      H      0.521260000000     0.514270000000     0.580920000000     0.0545037  
H43      H      0.544040000000     0.430910000000     0.483160000000     0.0391281  
H44      H      0.551980000000     0.545830000000     0.611390000000     0.0299698  
H45      H      0.818630000000     0.917060000000     0.376190000000     0.0291522  
H46      H      0.721460000000     0.031810000000     0.158300000000     0.0312494  
H47      H      0.748030000000     0.949050000000     0.308730000000     0.0389976  
H48      H      0.795650000000     0.004600000000     0.226110000000     0.0387994  
H49      H      0.753430000000     0.001490000000     0.188280000000     0.0551546  
H50      H      0.827660000000     0.973680000000     0.256700000000     0.0388341  
H51      H      0.709800000000     0.030710000000     0.269680000000     0.0583294  
H52      H      0.787660000000     0.949210000000     0.346610000000     0.0542575  
H53      H      0.837430000000     0.925040000000     0.265990000000     0.0544217  
H54      H      0.716200000000     0.980250000000     0.278400000000     0.0389479  
H55      H      0.868490000000     0.893700000000     0.296480000000     0.0300118  
H56      H      0.547190000000     0.131980000000     0.171620000000     0.0291532  
H57      H      0.480020000000     0.301530000000     0.355400000000     0.0323644  
H58      H      0.496360000000     0.169280000000     0.252840000000     0.0389494  
H59      H      0.528210000000     0.267230000000     0.271580000000     0.0390797  
H60      H      0.511460000000     0.271180000000     0.325090000000     0.0553951  
H61      H      0.560680000000     0.237070000000     0.240690000000     0.0389025  
H62      H      0.431590000000     0.241650000000     0.277970000000     0.058481   
H63      H      0.514040000000     0.162030000000     0.201540000000     0.0543773  
H64      H      0.594000000000     0.197250000000     0.244940000000     0.0545853  
H65      H      0.463730000000     0.199630000000     0.283470000000     0.0388339  
H66      H      0.626410000000     0.167400000000     0.214070000000     0.0301009  
H67      H      0.211670000000     0.017940000000     0.654420000000     0.0292904  
H68      H      0.373760000000     0.923320000000     0.830100000000     0.0303074  
H69      H      0.234850000000     0.945800000000     0.720850000000     0.0390408  
H70      H      0.295630000000     0.983700000000     0.806810000000     0.0391066  
H71      H      0.342830000000     0.953980000000     0.799430000000     0.0555977  
H72      H      0.264170000000     0.015260000000     0.776280000000     0.0396362  
H73      H      0.267690000000     0.896280000000     0.804600000000     0.0586066  
H74      H      0.242290000000     0.985540000000     0.684300000000     0.0548808  
H75      H      0.208370000000     0.023980000000     0.766310000000     0.0550015  
H76      H      0.266630000000     0.914260000000     0.751190000000     0.0388966  
H77      H      0.178050000000     0.056010000000     0.735770000000     0.0305037  
H78      H      0.618460000000     0.639880000000     0.729070000000     0.0287705  
H79      H      0.434160000000     0.810000000000     0.798380000000     0.030004   
H80      H      0.581470000000     0.719640000000     0.772860000000     0.0387322  
H81      H      0.469620000000     0.729790000000     0.755090000000     0.0388421  
H82      H      0.464710000000     0.780560000000     0.766020000000     0.0551429  
H83      H      0.499360000000     0.698560000000     0.722780000000     0.0389783  
H84      H      0.510770000000     0.746940000000     0.844050000000     0.0584886  
H85      H      0.589360000000     0.671010000000     0.761700000000     0.0542972  
H86      H      0.537630000000     0.698750000000     0.683680000000     0.054229   
H87      H      0.551540000000     0.750580000000     0.805430000000     0.0388431  
H88      H      0.566610000000     0.666810000000     0.651990000000     0.0293117  
H89      H      0.581430000000     0.017920000000     0.123110000000     0.028937   
H90      H      0.486810000000     0.883930000000     0.927590000000     0.031318   
H91      H      0.501810000000     0.986280000000     0.065720000000     0.039065   
H92      H      0.534920000000     0.962490000000     0.961060000000     0.038523   
H93      H      0.518310000000     0.914320000000     0.957780000000     0.0552116  
H94      H      0.567290000000     0.992450000000     0.992310000000     0.0387221  
H95      H      0.437930000000     0.956500000000     0.990530000000     0.0584524  
H96      H      0.550180000000     0.987030000000     0.092260000000     0.054493   
H97      H      0.568700000000     0.038730000000     0.014040000000     0.0544077  
H98      H      0.470160000000     0.955320000000     0.034980000000     0.0390325  
H99      H      0.600390000000     0.068780000000     0.045490000000     0.0285838  
H100     H      0.986930000000     0.797340000000     0.364670000000     0.0297069  
H101     H      0.069420000000     0.615260000000     0.212570000000     0.0307067  
H102     H      0.038930000000     0.762780000000     0.283380000000     0.0392957  
H103     H      0.993520000000     0.674370000000     0.245550000000     0.0386358  
H104     H      0.039050000000     0.644090000000     0.245810000000     0.0550139  
H105     H      0.963500000000     0.704360000000     0.279140000000     0.0387159  
H106     H      0.068780000000     0.717310000000     0.197910000000     0.0584644  
H107     H      0.017220000000     0.765200000000     0.334280000000     0.0544695  
H108     H      0.938090000000     0.749750000000     0.277780000000     0.0546112  
H109     H      0.069260000000     0.732370000000     0.250710000000     0.0390522  
H110     H      0.908410000000     0.781640000000     0.308970000000     0.0297372  
H111     H      0.220830000000     0.663360000000     0.123520000000     0.0299804  
H112     H      0.331040000000     0.768740000000     0.906380000000     0.0313628  
H113     H      0.297860000000     0.693820000000     0.060990000000     0.0388733  
H114     H      0.254500000000     0.734850000000     0.966820000000     0.0390845  
H115     H      0.301400000000     0.735660000000     0.935180000000     0.0553359  
H116     H      0.223510000000     0.702580000000     0.996710000000     0.0391798  
H117     H      0.328110000000     0.776170000000     0.018030000000     0.0584621  
H118     H      0.253350000000     0.693640000000     0.093330000000     0.054663   
H119     H      0.219100000000     0.654300000000     0.011870000000     0.0543644  
H120     H      0.328690000000     0.726330000000     0.031200000000     0.0389876  
H121     H      0.186280000000     0.624810000000     0.042840000000     0.0293538  
H122     H      0.178680000000     0.562360000000     0.231660000000     0.0296031  
H123     H      0.361540000000     0.389820000000     0.297250000000     0.0313944  
H124     H      0.262640000000     0.525760000000     0.280340000000     0.0388428  
H125     H      0.280840000000     0.428290000000     0.246690000000     0.0390343  
H126     H      0.333450000000     0.421550000000     0.265300000000     0.0552494  
H127     H      0.250630000000     0.459510000000     0.214770000000     0.0390989  
H128     H      0.284970000000     0.452810000000     0.343070000000     0.0582694  
H129     H      0.210170000000     0.532400000000     0.263390000000     0.0544054  
H130     H      0.254980000000     0.500720000000     0.183010000000     0.0544244  
H131     H      0.292780000000     0.494470000000     0.312300000000     0.0387218  
H132     H      0.222640000000     0.530570000000     0.151990000000     0.0291913  
H133     H      0.981710000000     0.297960000000     0.864850000000     0.0300034  
H134     H      0.054020000000     0.143280000000     0.667650000000     0.0306392  
H135     H      0.038690000000     0.267050000000     0.784120000000     0.0390724  
H136     H      0.995800000000     0.178340000000     0.744330000000     0.0387525  
H137     H      0.021520000000     0.174370000000     0.696020000000     0.0546821  
H138     H      0.963250000000     0.209290000000     0.774340000000     0.0389959  
H139     H      0.095780000000     0.192000000000     0.757190000000     0.0580618  
H140     H      0.013670000000     0.267090000000     0.834610000000     0.0544894  
H141     H      0.938790000000     0.256110000000     0.771620000000     0.0543431  
H142     H      0.071120000000     0.236400000000     0.753760000000     0.0386292  
H143     H      0.907380000000     0.286990000000     0.802550000000     0.0284176  
H144     H      0.661890000000     0.179860000000     0.081660000000     0.029289   
H145     H      0.875850000000     0.269700000000     0.948120000000     0.0301545  
H146     H      0.736710000000     0.243490000000     0.058290000000     0.039034   
H147     H      0.806080000000     0.205020000000     0.979340000000     0.0385143  
H148     H      0.848270000000     0.238360000000     0.981000000000     0.0548111  
H149     H      0.775960000000     0.173170000000     0.010700000000     0.0390016  
H150     H      0.768620000000     0.290840000000     0.975300000000     0.0581776  
H151     H      0.693210000000     0.211470000000     0.051750000000     0.0545789  
H152     H      0.770580000000     0.156280000000     0.063410000000     0.0542757  
H153     H      0.766960000000     0.275320000000     0.027170000000     0.0388761  
H154     H      0.738420000000     0.124940000000     0.093020000000     0.0293637  
H155     H      0.801100000000     0.372340000000     0.830240000000     0.0311462  
H156     H      0.735390000000     0.561610000000     0.670170000000     0.0316384  
H157     H      0.764190000000     0.416360000000     0.746040000000     0.0387804  
H158     H      0.777560000000     0.518990000000     0.753710000000     0.0390078  
H159     H      0.768520000000     0.530870000000     0.698510000000     0.0551992  
H160     H      0.809290000000     0.488400000000     0.784930000000     0.0387646  
H161     H      0.690750000000     0.481850000000     0.725520000000     0.0586555  
H162     H      0.770880000000     0.402130000000     0.797350000000     0.0545148  
H163     H      0.849990000000     0.455060000000     0.784180000000     0.0539229  
H164     H      0.732050000000     0.447080000000     0.715420000000     0.0389209  
H165     H      0.879220000000     0.425190000000     0.818100000000     0.0286131  
H166     H      0.098510000000     0.509060000000     0.108390000000     0.02914    
H167     H      0.972790000000     0.406900000000     0.910560000000     0.0317198  
H168     H      0.011450000000     0.468250000000     0.070480000000     0.038866   
H169     H      0.002450000000     0.486490000000     0.959900000000     0.0386212  
H170     H      0.002760000000     0.438270000000     0.941140000000     0.0550805  
H171     H      0.034590000000     0.516850000000     0.991030000000     0.0389807  
H172     H      0.932800000000     0.437820000000     0.009770000000     0.058237   
H173     H      0.065510000000     0.479240000000     0.078100000000     0.0545148  
H174     H      0.031250000000     0.552010000000     0.031250000000     0.0543821  
H175     H      0.980160000000     0.437350000000     0.039190000000     0.0388033  
H176     H      0.064960000000     0.581190000000     0.061720000000     0.0290554  
In1      In     0.890350000000     0.348330000000     0.886070000000     2.40797    
In2      In     0.142200000000     0.596070000000     0.136720000000     2.41254    
In3      In     0.395920000000     0.845210000000     0.890090000000     2.42173    
In4      In     0.644250000000     0.097690000000     0.139470000000     2.40844    
In5      In     0.390360000000     0.345610000000     0.387860000000     2.42182    
In6      In     0.642200000000     0.597250000000     0.634050000000     2.41596    
In7      In     0.895990000000     0.847930000000     0.388310000000     2.41596    
In8      In     0.144650000000     0.095720000000     0.642620000000     2.41573    
N1       N      0.949080000000     0.902380000000     0.437140000000    -0.19667    
N2       N      0.091630000000     0.045760000000     0.589230000000    -0.195731   
N3       N      0.691800000000     0.650670000000     0.580590000000    -0.196093   
N4       N      0.843120000000     0.795710000000     0.439270000000    -0.195727   
N5       N      0.200490000000     0.148220000000     0.594080000000    -0.197825   
N6       N      0.340860000000     0.293030000000     0.441660000000    -0.196163   
N7       N      0.446880000000     0.397890000000     0.435620000000    -0.196739   
N8       N      0.591300000000     0.544380000000     0.582130000000    -0.195615   
N9       N      0.696450000000     0.049120000000     0.196040000000    -0.196465   
N10      N      0.845680000000     0.903060000000     0.338440000000    -0.195697   
N11      N      0.437100000000     0.289760000000     0.334800000000    -0.196459   
N12      N      0.589120000000     0.147600000000     0.190660000000    -0.195397   
N13      N      0.339130000000     0.891690000000     0.835780000000    -0.197628   
N14      N      0.192810000000     0.039320000000     0.692960000000    -0.19565    
N15      N      0.454110000000     0.795910000000     0.840420000000    -0.198002   
N16      N      0.594530000000     0.651060000000     0.688280000000    -0.197219   
N17      N      0.443640000000     0.901680000000     0.941470000000    -0.196574   
N18      N      0.593070000000     0.045550000000     0.086510000000    -0.197016   
N19      N      0.087660000000     0.649120000000     0.185970000000    -0.197341   
N20      N      0.945600000000     0.791870000000     0.338900000000    -0.195981   
N21      N      0.347360000000     0.792030000000     0.944980000000    -0.19716    
N22      N      0.201110000000     0.642090000000     0.085330000000    -0.195501   
N23      N      0.340140000000     0.402480000000     0.339130000000    -0.19738    
N24      N      0.198310000000     0.548480000000     0.189600000000    -0.195764   
N25      N      0.094300000000     0.149510000000     0.695120000000    -0.19684    
N26      N      0.942330000000     0.294720000000     0.835810000000    -0.196025   
N27      N      0.838840000000     0.299010000000     0.942440000000    -0.196158   
N28      N      0.697920000000     0.150180000000     0.089450000000    -0.195959   
N29      N      0.693430000000     0.540150000000     0.681170000000    -0.196476   
N30      N      0.842230000000     0.396720000000     0.826630000000    -0.195686   
N31      N      0.935180000000     0.403330000000     0.942050000000    -0.197159   
N32      N      0.084150000000     0.547210000000     0.087150000000    -0.196628   
O1       O      0.885900000000     0.385700000000     0.853890000000    -0.504779   
O2       O      0.847630000000     0.358620000000     0.858280000000    -0.493289   
O3       O      0.934230000000     0.323650000000     0.877020000000    -0.498566   
O4       O      0.930540000000     0.376990000000     0.898040000000    -0.495102   
O5       O      0.846680000000     0.338230000000     0.912100000000    -0.490316   
O6       O      0.894160000000     0.374270000000     0.929490000000    -0.504482   
O7       O      0.897680000000     0.319200000000     0.845490000000    -0.508231   
O8       O      0.883530000000     0.309800000000     0.916150000000    -0.504174   
O9       O      0.105370000000     0.605050000000     0.172610000000    -0.499745   
O10      O      0.124130000000     0.639280000000     0.148830000000    -0.502496   
O11      O      0.181140000000     0.564740000000     0.143210000000    -0.50288    
O12      O      0.121440000000     0.553970000000     0.123650000000    -0.507595   
O13      O      0.180920000000     0.627630000000     0.131200000000    -0.500604   
O14      O      0.104710000000     0.589890000000     0.100840000000    -0.501873   
O15      O      0.159560000000     0.580810000000     0.182800000000    -0.500494   
O16      O      0.162990000000     0.608940000000     0.091150000000    -0.500262   
O17      O      0.349610000000     0.854160000000     0.867860000000    -0.502431   
O18      O      0.386020000000     0.881880000000     0.858330000000    -0.505015   
O19      O      0.364850000000     0.807490000000     0.898130000000    -0.501868   
O20      O      0.433690000000     0.812460000000     0.885910000000    -0.502285   
O21      O      0.398420000000     0.881550000000     0.923470000000    -0.496364   
O22      O      0.416250000000     0.829690000000     0.845290000000    -0.509286   
O23      O      0.378870000000     0.830590000000     0.936500000000    -0.500612   
O24      O      0.440280000000     0.864950000000     0.907250000000    -0.50385    
O25      O      0.597180000000     0.113230000000     0.154690000000    -0.503678   
O26      O      0.636580000000     0.131620000000     0.175020000000    -0.495493   
O27      O      0.624120000000     0.084090000000     0.093760000000    -0.508021   
O28      O      0.651950000000     0.137160000000     0.111360000000    -0.50329    
O29      O      0.658840000000     0.082570000000     0.186400000000    -0.498431   
O30      O      0.690010000000     0.110180000000     0.117780000000    -0.498419   
O31      O      0.613970000000     0.059250000000     0.132360000000    -0.505628   
O32      O      0.681400000000     0.065010000000     0.148480000000    -0.496594   
O33      O      0.345600000000     0.324700000000     0.402370000000    -0.503998   
O34      O      0.386080000000     0.314040000000     0.426570000000    -0.505297   
O35      O      0.392530000000     0.312680000000     0.350350000000    -0.499284   
O36      O      0.376830000000     0.367600000000     0.343700000000    -0.50326    
O37      O      0.403980000000     0.369570000000     0.430640000000    -0.502229   
O38      O      0.354260000000     0.379920000000     0.383920000000    -0.503343   
O39      O      0.433740000000     0.322840000000     0.373120000000    -0.499484   
O40      O      0.432510000000     0.373520000000     0.392060000000    -0.498233   
O41      O      0.598100000000     0.573660000000     0.623270000000    -0.501238   
O42      O      0.635950000000     0.568270000000     0.593350000000    -0.501596   
O43      O      0.632020000000     0.617800000000     0.679990000000    -0.508528   
O44      O      0.647130000000     0.559810000000     0.665640000000    -0.502029   
O45      O      0.649770000000     0.622040000000     0.590550000000    -0.497401   
O46      O      0.687870000000     0.578190000000     0.648970000000    -0.494432   
O47      O      0.605260000000     0.630290000000     0.642190000000    -0.506926   
O48      O      0.683610000000     0.625250000000     0.624760000000    -0.496127   
O49      O      0.935300000000     0.879180000000     0.392560000000    -0.500519   
O50      O      0.909200000000     0.870640000000     0.431930000000    -0.50053    
O51      O      0.884030000000     0.870150000000     0.343960000000    -0.50039    
O52      O      0.901160000000     0.815990000000     0.350140000000    -0.502228   
O53      O      0.888480000000     0.818700000000     0.428670000000    -0.500568   
O54      O      0.940040000000     0.823770000000     0.377900000000    -0.501602   
O55      O      0.858420000000     0.880890000000     0.383320000000    -0.503459   
O56      O      0.851160000000     0.825110000000     0.398450000000    -0.503058   
O57      O      0.139650000000     0.127170000000     0.681150000000    -0.49932    
O58      O      0.099940000000     0.117760000000     0.655650000000    -0.501178   
O59      O      0.191640000000     0.113440000000     0.630080000000    -0.50341    
O60      O      0.177300000000     0.058570000000     0.647330000000    -0.501652   
O61      O      0.105570000000     0.064490000000     0.635650000000    -0.501869   
O62      O      0.159050000000     0.076170000000     0.687740000000    -0.498777   
O63      O      0.153030000000     0.130130000000     0.607610000000    -0.505351   
O64      O      0.130820000000     0.077450000000     0.596820000000    -0.503946   
S1       S      0.982790000000     0.917000000000     0.390190000000    -0.00430615 
S2       S      0.649400000000     0.653200000000     0.538120000000    -0.00272316 
S3       S      0.250560000000     0.133180000000     0.623150000000    -0.00416582 
S4       S      0.488950000000     0.399330000000     0.392790000000    -0.00219144 
S5       S      0.669230000000     0.067220000000     0.245650000000    -0.00306099 
S6       S      0.387640000000     0.271220000000     0.307170000000    -0.00471179 
S7       S      0.293950000000     0.855350000000     0.838120000000    -0.00406067 
S8       S      0.483180000000     0.776790000000     0.888490000000    -0.00381032 
S9       S      0.394040000000     0.927400000000     0.960890000000    -0.00270754 
S10      S      0.105220000000     0.693640000000     0.155520000000    -0.00340268 
S11      S      0.364460000000     0.816950000000     0.995490000000    -0.0022449  
S12      S      0.311360000000     0.421880000000     0.387260000000    -0.00424524 
S13      S      0.140090000000     0.159920000000     0.732400000000    -0.00188889 
S14      S      0.790420000000     0.331730000000     0.939120000000     0.00111127 
S15      S      0.645620000000     0.509510000000     0.695960000000    -0.00477236 
S16      S      0.891940000000     0.402710000000     0.983750000000    -0.00476558 


