data_structure

_audit_creation_method RASPA-1.0
_audit_creation_date 2023-5-22
_audit_author_name 'Poobodin Mano'

_cell_length_a    41.0719
_cell_length_b    48.126
_cell_length_c    45.8253
_cell_angle_alpha 90
_cell_angle_beta  90
_cell_angle_gamma 90
_cell_volume      90579.5

_symmetry_cell_setting          triclinic
_symmetry_space_group_name_Hall 'P 1'
_symmetry_space_group_name_H-M  'P 1'
_symmetry_Int_Tables_number     1

_symmetry_equiv_pos_as_xyz 'x,y,z'

loop_
_atom_site_label
_atom_site_type_symbol
_atom_site_fract_x
_atom_site_fract_y
_atom_site_fract_z
_atom_site_charge
C1       C      0.949300000000     0.370730000000     0.907150000000     0.423731   
C2       C      0.876680000000     0.374170000000     0.840420000000     0.423583   
C3       C      0.953690000000     0.309630000000     0.833260000000     0.420384   
C4       C      0.878770000000     0.301300000000     0.901820000000     0.417579   
C5       C      0.135340000000     0.558810000000     0.075500000000     0.410399   
C6       C      0.134360000000     0.626320000000     0.147820000000     0.409337   
C7       C      0.202330000000     0.556950000000     0.146160000000     0.421415   
C8       C      0.200460000000     0.628630000000     0.076110000000     0.413565   
C9       C      0.379870000000     0.881420000000     0.821270000000     0.418687   
C10      C      0.375940000000     0.800930000000     0.881580000000     0.419506   
C11      C      0.443340000000     0.812880000000     0.810610000000     0.421652   
C12      C      0.438980000000     0.869410000000     0.895740000000     0.417814   
C13      C      0.705040000000     0.110970000000     0.077940000000     0.428353   
C14      C      0.625860000000     0.045260000000     0.076960000000     0.408568   
C15      C      0.699730000000     0.041500000000     0.142260000000     0.425911   
C16      C      0.627030000000     0.109430000000     0.145650000000     0.415762   
C17      C      0.456850000000     0.303600000000     0.320450000000     0.410827   
C18      C      0.389100000000     0.376520000000     0.323490000000     0.4115     
C19      C      0.390220000000     0.299850000000     0.386560000000     0.417709   
C20      C      0.455090000000     0.373640000000     0.391010000000     0.409371   
C21      C      0.697100000000     0.549740000000     0.652260000000     0.413852   
C22      C      0.631790000000     0.545220000000     0.585310000000     0.418804   
C23      C      0.629860000000     0.623400000000     0.644610000000     0.410819   
C24      C      0.702130000000     0.616570000000     0.580670000000     0.418743   
C25      C      0.950060000000     0.800000000000     0.334740000000     0.419469   
C26      C      0.947660000000     0.871270000000     0.404840000000     0.411516   
C27      C      0.884590000000     0.871130000000     0.331100000000     0.412834   
C28      C      0.881060000000     0.802740000000     0.403530000000     0.410187   
C29      C      0.199910000000     0.062160000000     0.639030000000     0.411529   
C30      C      0.128640000000     0.131810000000     0.643690000000     0.417247   
C31      C      0.199800000000     0.131610000000     0.573590000000     0.4128     
C32      C      0.126100000000     0.065250000000     0.572970000000     0.426448   
C33      C      0.056700000000     0.032050000000     0.535130000000    -0.142287   
C34      C      0.996150000000     0.884440000000     0.429390000000     0.0756691  
C35      C      0.948800000000     0.912350000000     0.433620000000     0.0747627  
C36      C      0.013690000000     0.903050000000     0.446660000000    -0.0942545  
C37      C      0.049050000000     0.954920000000     0.466740000000    -0.0371303  
C38      C      0.066650000000     0.974430000000     0.482850000000    -0.0310991  
C39      C      0.017250000000     0.947540000000     0.474980000000    -0.0052348  
C40      C      0.965600000000     0.931380000000     0.451050000000    -0.0940737  
C41      C      0.052930000000     0.987010000000     0.507670000000    -0.0154529  
C42      C      0.105030000000     0.004580000000     0.529310000000    -0.108123   
C43      C      0.021110000000     0.979620000000     0.515940000000    -0.0311847  
C44      C      0.122450000000     0.024640000000     0.544660000000     0.0826055  
C45      C      0.074920000000     0.052590000000     0.549710000000     0.188136   
C46      C      0.003450000000     0.960120000000     0.499750000000    -0.037247   
C47      C      0.998540000000     0.926990000000     0.457540000000     0.0499952  
C48      C      0.071700000000     0.007960000000     0.524600000000     0.071743   
C49      C      0.769480000000     0.659710000000     0.552460000000    -0.143165   
C50      C      0.831970000000     0.778590000000     0.413640000000     0.074844   
C51      C      0.876620000000     0.774950000000     0.446220000000     0.0737324  
C52      C      0.813520000000     0.760760000000     0.431070000000    -0.0942844  
C53      C      0.788010000000     0.709700000000     0.462210000000    -0.0372496  
C54      C      0.770390000000     0.691120000000     0.479510000000    -0.0312701  
C55      C      0.807830000000     0.730130000000     0.475090000000    -0.0053193  
C56      C      0.858860000000     0.757010000000     0.464160000000    -0.0940504  
C57      C      0.772220000000     0.692480000000     0.510100000000    -0.0156329  
C58      C      0.722650000000     0.664050000000     0.521460000000    -0.107801   
C59      C      0.791860000000     0.713010000000     0.523000000000    -0.0313342  
C60      C      0.706450000000     0.644670000000     0.538790000000     0.0807086  
C61      C      0.753290000000     0.639310000000     0.568950000000     0.188583   
C62      C      0.809440000000     0.731640000000     0.505700000000    -0.0372572  
C63      C      0.826930000000     0.749610000000     0.456620000000     0.0495537  
C64      C      0.754340000000     0.672120000000     0.528460000000     0.0716727  
C65      C      0.327110000000     0.251160000000     0.412500000000    -0.142148   
C66      C      0.243820000000     0.163200000000     0.567560000000     0.0754242  
C67      C      0.211500000000     0.150360000000     0.526850000000     0.07537    
C68      C      0.263130000000     0.180150000000     0.549830000000    -0.0943229  
C69      C      0.310750000000     0.199860000000     0.502990000000    -0.0371111  
C70      C      0.329860000000     0.215850000000     0.484130000000    -0.0312614  
C71      C      0.276640000000     0.200040000000     0.500610000000    -0.00537908 
C72      C      0.230130000000     0.167220000000     0.508560000000    -0.0945442  
C73      C      0.315270000000     0.232510000000     0.462540000000    -0.0152472  
C74      C      0.363900000000     0.262330000000     0.451470000000    -0.107222   
C75      C      0.281110000000     0.232950000000     0.460480000000    -0.0311712  
C76      C      0.382370000000     0.277990000000     0.431960000000     0.0812839  
C77      C      0.346620000000     0.266330000000     0.392930000000     0.188096   
C78      C      0.262040000000     0.216860000000     0.479230000000    -0.0372728  
C79      C      0.256360000000     0.182330000000     0.519950000000     0.0501196  
C80      C      0.335550000000     0.249090000000     0.442000000000     0.0712771  
C81      C      0.566010000000     0.500550000000     0.556750000000    -0.142302   
C82      C      0.502830000000     0.399070000000     0.403030000000     0.0751701  
C83      C      0.457350000000     0.399790000000     0.434910000000     0.0754004  
C84      C      0.520340000000     0.416170000000     0.422020000000    -0.0940048  
C85      C      0.543940000000     0.464800000000     0.459010000000    -0.0371708  
C86      C      0.561490000000     0.481190000000     0.478670000000    -0.0309857  
C87      C      0.524660000000     0.442640000000     0.469030000000    -0.00518717 
C88      C      0.474200000000     0.416770000000     0.454450000000    -0.0943513  
C89      C      0.560260000000     0.475740000000     0.508810000000    -0.0153728  
C90      C      0.610860000000     0.501440000000     0.523190000000    -0.107482   
C91      C      0.541000000000     0.453520000000     0.518790000000    -0.0309795  
C92      C      0.628180000000     0.517800000000     0.542890000000     0.0812252  
C93      C      0.584370000000     0.516090000000     0.576880000000     0.188168   
C94      C      0.523360000000     0.437220000000     0.499140000000    -0.0372707  
C95      C      0.506130000000     0.425080000000     0.448190000000     0.0500794  
C96      C      0.579160000000     0.493020000000     0.529730000000     0.0715181  
C97      C      0.723930000000     0.991460000000     0.199300000000    -0.143779   
C98      C      0.884380000000     0.901720000000     0.290290000000     0.0745993  
C99      C      0.835620000000     0.893190000000     0.316500000000     0.0759906  
C100     C      0.867910000000     0.919730000000     0.271420000000    -0.093825   
C101     C      0.822940000000     0.943750000000     0.225060000000    -0.0370312  
C102     C      0.804510000000     0.960320000000     0.206190000000    -0.0312644  
C103     C      0.816170000000     0.943260000000     0.255160000000    -0.00526799 
C104     C      0.818400000000     0.910850000000     0.297980000000    -0.0942353  
C105     C      0.778780000000     0.976580000000     0.216970000000    -0.0158811  
C106     C      0.771260000000     0.008660000000     0.174450000000    -0.108419   
C107     C      0.772430000000     0.976570000000     0.247080000000    -0.031427   
C108     C      0.751000000000     0.023820000000     0.155930000000     0.0812993  
C109     C      0.703850000000     0.005710000000     0.179480000000     0.189986   
C110     C      0.791000000000     0.960230000000     0.265960000000    -0.0371009  
C111     C      0.834470000000     0.924500000000     0.275130000000     0.0499296  
C112     C      0.757800000000     0.992760000000     0.196840000000     0.0722687  
C113     C      0.560510000000     0.153300000000     0.174330000000    -0.142353   
C114     C      0.505110000000     0.278130000000     0.310330000000     0.0745668  
C115     C      0.459590000000     0.274400000000     0.278740000000     0.0743656  
C116     C      0.522570000000     0.259290000000     0.293220000000    -0.0938992  
C117     C      0.545670000000     0.206570000000     0.263370000000    -0.0372362  
C118     C      0.562100000000     0.186960000000     0.246380000000    -0.0313226  
C119     C      0.526130000000     0.227030000000     0.250200000000    -0.00528609 
C120     C      0.476320000000     0.255470000000     0.261170000000    -0.0941786  
C121     C      0.559340000000     0.187280000000     0.215800000000    -0.0155253  
C122     C      0.608060000000     0.157850000000     0.204400000000    -0.107727   
C123     C      0.539940000000     0.207800000000     0.202600000000    -0.0314077  
C124     C      0.623650000000     0.138020000000     0.187210000000     0.0811393  
C125     C      0.576160000000     0.132470000000     0.157950000000     0.187059   
C126     C      0.523550000000     0.227460000000     0.219590000000    -0.0372627  
C127     C      0.508190000000     0.247590000000     0.268350000000     0.0495578  
C128     C      0.576340000000     0.166100000000     0.197760000000     0.0712382  
C129     C      0.363720000000     0.938770000000     0.769660000000    -0.142542   
C130     C      0.203660000000     0.023350000000     0.670830000000     0.0760135  
C131     C      0.251520000000     0.047330000000     0.656570000000     0.0749616  
C132     C      0.221950000000     0.005270000000     0.688120000000    -0.0943179  
C133     C      0.268490000000     0.961140000000     0.710370000000    -0.0372834  
C134     C      0.286360000000     0.943780000000     0.728840000000    -0.0312075  
C135     C      0.275520000000     0.989690000000     0.708730000000    -0.00516943 
C136     C      0.270570000000     0.029630000000     0.673670000000    -0.094043   
C137     C      0.311690000000     0.954540000000     0.746090000000    -0.0155731  
C138     C      0.313650000000     0.916640000000     0.783440000000    -0.107754   
C139     C      0.318960000000     0.983040000000     0.744220000000    -0.0310083  
C140     C      0.331020000000     0.899590000000     0.802430000000     0.0804079  
C141     C      0.380720000000     0.922060000000     0.789740000000     0.187156   
C142     C      0.301090000000     0.000400000000     0.725750000000    -0.0372795  
C143     C      0.255820000000     0.008340000000     0.689820000000     0.0499822  
C144     C      0.330000000000     0.936210000000     0.766400000000     0.0711651  
C145     C      0.465310000000     0.765560000000     0.750370000000    -0.142134   
C146     C      0.624340000000     0.655080000000     0.684050000000     0.0748357  
C147     C      0.581490000000     0.650020000000     0.649750000000     0.0746829  
C148     C      0.606310000000     0.674770000000     0.699550000000    -0.0944038  
C149     C      0.569170000000     0.727420000000     0.716410000000    -0.0374211  
C150     C      0.550650000000     0.746540000000     0.732270000000    -0.0311195  
C151     C      0.555260000000     0.702430000000     0.706680000000    -0.00531464 
C152     C      0.562630000000     0.669380000000     0.664920000000    -0.0943783  
C153     C      0.517860000000     0.740980000000     0.739040000000    -0.0152901  
C154     C      0.512480000000     0.776180000000     0.779210000000    -0.107231   
C155     C      0.504000000000     0.715920000000     0.729210000000    -0.03113    
C156     C      0.493690000000     0.794400000000     0.795770000000     0.0809393  
C157     C      0.446900000000     0.784560000000     0.766880000000     0.18729    
C158     C      0.522440000000     0.696940000000     0.713090000000    -0.0374529  
C159     C      0.575000000000     0.682000000000     0.690120000000     0.0499267  
C160     C      0.498280000000     0.761060000000     0.756510000000     0.0709467  
C161     C      0.499160000000     0.893110000000     0.950000000000    -0.143311   
C162     C      0.580760000000     0.039600000000     0.044980000000     0.0737876  
C163     C      0.612270000000     0.000530000000     0.058970000000     0.0741067  
C164     C      0.560630000000     0.022700000000     0.027950000000    -0.0940049  
C165     C      0.533980000000     0.984570000000     0.980800000000    -0.0372404  
C166     C      0.515240000000     0.966870000000     0.963370000000    -0.0312085  
C167     C      0.545640000000     0.975620000000     0.008100000000    -0.00524726 
C168     C      0.592790000000     0.983080000000     0.042060000000    -0.0944064  
C169     C      0.507960000000     0.939790000000     0.972770000000    -0.0158578  
C170     C      0.460800000000     0.929530000000     0.939890000000    -0.108302   
C171     C      0.519210000000     0.930950000000     0.000180000000    -0.0312292  
C172     C      0.443710000000     0.911330000000     0.921840000000     0.0803257  
C173     C      0.481150000000     0.874850000000     0.932320000000     0.188926   
C174     C      0.537720000000     0.948680000000     0.017680000000    -0.0374523  
C175     C      0.566520000000     0.994040000000     0.026290000000     0.0493621  
C176     C      0.489140000000     0.920630000000     0.953830000000     0.0717707  
C177     C      0.973480000000     0.739320000000     0.289860000000    -0.141917   
C178     C      0.129370000000     0.667960000000     0.175390000000     0.0746762  
C179     C      0.085940000000     0.635510000000     0.174400000000     0.075661   
C180     C      0.111450000000     0.685480000000     0.193660000000    -0.0939617  
C181     C      0.059680000000     0.724770000000     0.217980000000    -0.0372193  
C182     C      0.041130000000     0.741700000000     0.236390000000    -0.0309976  
C183     C      0.060740000000     0.695870000000     0.222320000000    -0.00513933 
C184     C      0.067450000000     0.652410000000     0.192760000000    -0.0943045  
C185     C      0.023320000000     0.730130000000     0.259620000000    -0.0153312  
C186     C      0.015880000000     0.773600000000     0.289040000000    -0.107178   
C187     C      0.024600000000     0.701220000000     0.264030000000    -0.0310052  
C188     C      0.997620000000     0.789890000000     0.308120000000     0.0809956  
C189     C      0.956020000000     0.755460000000     0.310130000000     0.186656   
C190     C      0.043010000000     0.684300000000     0.245560000000    -0.0374086  
C191     C      0.080120000000     0.677750000000     0.202640000000     0.0499047  
C192     C      0.003790000000     0.748090000000     0.279430000000     0.071192   
C193     C      0.309730000000     0.757020000000     0.910770000000    -0.142591   
C194     C      0.248040000000     0.654250000000     0.064100000000     0.0759234  
C195     C      0.202430000000     0.655100000000     0.032390000000     0.0751045  
C196     C      0.265520000000     0.671310000000     0.045070000000    -0.0943799  
C197     C      0.302700000000     0.692270000000     0.992260000000    -0.0372674  
C198     C      0.320160000000     0.708570000000     0.972470000000    -0.0312833  
C199     C      0.269760000000     0.697920000000     0.998090000000    -0.0052944  
C200     C      0.219170000000     0.672220000000     0.012880000000    -0.0941974  
C201     C      0.305110000000     0.730940000000     0.958050000000    -0.0155174  
C202     C      0.355980000000     0.755710000000     0.942750000000    -0.108027   
C203     C      0.272150000000     0.736580000000     0.963860000000    -0.0312662  
C204     C      0.373050000000     0.772210000000     0.923030000000     0.0802398  
C205     C      0.327750000000     0.772840000000     0.890590000000     0.187957   
C206     C      0.254670000000     0.720250000000     0.983650000000    -0.0372333  
C207     C      0.251200000000     0.680380000000     0.018990000000     0.0500925  
C208     C      0.323750000000     0.748320000000     0.937040000000     0.0713454  
C209     C      0.225660000000     0.508570000000     0.205310000000    -0.142108   
C210     C      0.386670000000     0.408900000000     0.284430000000     0.0748956  
C211     C      0.339940000000     0.400750000000     0.313580000000     0.0749269  
C212     C      0.369370000000     0.427820000000     0.267270000000    -0.0940479  
C213     C      0.321580000000     0.452780000000     0.224200000000    -0.0370542  
C214     C      0.303010000000     0.470410000000     0.206600000000    -0.0312749  
C215     C      0.317400000000     0.452630000000     0.254660000000    -0.00519889 
C216     C      0.321900000000     0.419510000000     0.296850000000    -0.0938312  
C217     C      0.279750000000     0.488290000000     0.219010000000    -0.0153751  
C218     C      0.272240000000     0.519850000000     0.176010000000    -0.107471   
C219     C      0.275770000000     0.488360000000     0.249480000000    -0.0313955  
C220     C      0.252310000000     0.535910000000     0.158100000000     0.0808608  
C221     C      0.205640000000     0.523890000000     0.186270000000     0.186709   
C222     C      0.294410000000     0.470760000000     0.267100000000    -0.0372102  
C223     C      0.336510000000     0.433230000000     0.273250000000     0.0497453  
C224     C      0.259080000000     0.506180000000     0.200130000000     0.0712395  
C225     C      0.992060000000     0.282280000000     0.766270000000    -0.142539   
C226     C      0.110360000000     0.143440000000     0.691310000000     0.074938   
C227     C      0.095190000000     0.171500000000     0.651010000000     0.0750773  
C228     C      0.093150000000     0.160710000000     0.710320000000    -0.0942632  
C229     C      0.071400000000     0.209740000000     0.746980000000    -0.037074   
C230     C      0.054530000000     0.227540000000     0.765730000000    -0.031304   
C231     C      0.058530000000     0.202830000000     0.719480000000    -0.00534323 
C232     C      0.077760000000     0.189240000000     0.669400000000    -0.0943581  
C233     C      0.024400000000     0.238910000000     0.757420000000    -0.0154476  
C234     C      0.005240000000     0.253210000000     0.807150000000    -0.107676   
C235     C      0.011480000000     0.231990000000     0.729960000000    -0.0313834  
C236     C      0.988460000000     0.271490000000     0.825330000000     0.0813269  
C237     C      0.976390000000     0.301100000000     0.785110000000     0.187653   
C238     C      0.028330000000     0.214140000000     0.711220000000    -0.0371736  
C239     C      0.076630000000     0.184010000000     0.699480000000     0.0498759  
C240     C      0.006710000000     0.258200000000     0.777180000000     0.0714095  
C241     C      0.758310000000     0.168620000000     0.054680000000    -0.142984   
C242     C      0.843730000000     0.262030000000     0.904520000000     0.0749816  
C243     C      0.860260000000     0.285100000000     0.947790000000     0.0747879  
C244     C      0.825590000000     0.242990000000     0.920850000000    -0.0943553  
C245     C      0.806230000000     0.196420000000     0.962460000000    -0.0370987  
C246     C      0.789680000000     0.177370000000     0.980080000000    -0.031338   
C247     C      0.805980000000     0.224910000000     0.969260000000    -0.00549934 
C248     C      0.842400000000     0.266470000000     0.964740000000    -0.0949251  
C249     C      0.772530000000     0.186380000000     0.004900000000    -0.0155404  
C250     C      0.738820000000     0.143600000000     0.012860000000    -0.107883   
C251     C      0.771830000000     0.214910000000     0.011390000000    -0.0313873  
C252     C      0.723320000000     0.124930000000     0.031510000000     0.0808939  
C253     C      0.743620000000     0.148940000000     0.073160000000     0.187964   
C254     C      0.788330000000     0.233950000000     0.993780000000    -0.0373856  
C255     C      0.824760000000     0.245070000000     0.951350000000     0.0498789  
C256     C      0.756020000000     0.166080000000     0.024350000000     0.0715284  
C257     C      0.806370000000     0.412010000000     0.809450000000    -0.142297   
C258     C      0.746140000000     0.527200000000     0.665970000000     0.0754633  
C259     C      0.698140000000     0.520120000000     0.693770000000     0.0748484  
C260     C      0.763680000000     0.509890000000     0.684640000000    -0.0950399  
C261     C      0.797720000000     0.487140000000     0.738380000000    -0.0374198  
C262     C      0.815400000000     0.470050000000     0.757230000000    -0.0311883  
C263     C      0.766650000000     0.479200000000     0.728670000000    -0.00548178 
C264     C      0.714910000000     0.502490000000     0.712790000000    -0.0946862  
C265     C      0.802530000000     0.444510000000     0.766680000000    -0.0156091  
C266     C      0.855250000000     0.423770000000     0.783550000000    -0.108344   
C267     C      0.771350000000     0.436620000000     0.757020000000    -0.0312102  
C268     C      0.872850000000     0.406990000000     0.802610000000     0.0828585  
C269     C      0.824680000000     0.395820000000     0.829090000000     0.188074   
C270     C      0.753560000000     0.453830000000     0.738290000000    -0.037441   
C271     C      0.748130000000     0.497340000000     0.708430000000     0.0500966  
C272     C      0.821560000000     0.426280000000     0.786610000000     0.0716898  
C273     C      0.972490000000     0.426820000000     0.957970000000    -0.14347    
C274     C      0.134130000000     0.520440000000     0.042910000000     0.0744136  
C275     C      0.085290000000     0.544220000000     0.054630000000     0.0749003  
C276     C      0.117010000000     0.502020000000     0.025040000000    -0.0940408  
C277     C      0.072580000000     0.456190000000     0.003440000000    -0.0370151  
C278     C      0.054180000000     0.437290000000     0.987200000000    -0.0314233  
C279     C      0.064290000000     0.484560000000     0.003940000000    -0.00529711 
C280     C      0.067380000000     0.526040000000     0.037130000000    -0.0940133  
C281     C      0.026920000000     0.446270000000     0.971280000000    -0.015806   
C282     C      0.020350000000     0.405130000000     0.938320000000    -0.108081   
C283     C      0.018820000000     0.474630000000     0.971450000000    -0.0314981  
C284     C      0.000510000000     0.386340000000     0.923490000000     0.0806492  
C285     C      0.952960000000     0.406830000000     0.944050000000     0.188817   
C286     C      0.037370000000     0.493570000000     0.987480000000    -0.0372232  
C287     C      0.083160000000     0.504530000000     0.022100000000     0.0496165  
C288     C      0.006360000000     0.426030000000     0.955290000000     0.0718264  
H1       H      0.923460000000     0.916640000000     0.428740000000     0.0281173  
H2       H      0.148070000000     0.020450000000     0.548430000000     0.0269995  
H3       H      0.979130000000     0.954640000000     0.506860000000     0.0386252  
H4       H      0.090840000000     0.980020000000     0.475510000000     0.0369585  
H5       H      0.117640000000     0.986190000000     0.521710000000     0.0569887  
H6       H      0.060170000000     0.945980000000     0.447470000000     0.0389079  
H7       H      0.031170000000     0.035710000000     0.530480000000     0.0660001  
H8       H      0.953020000000     0.949730000000     0.458800000000     0.0534888  
H9       H      0.038980000000     0.898640000000     0.451520000000     0.0539381  
H10      H      0.009970000000     0.988660000000     0.535140000000     0.0369777  
H11      H      0.008810000000     0.866250000000     0.421260000000     0.0302927  
H12      H      0.035110000000     0.079940000000     0.551120000000     0.0894096  
H13      H      0.072270000000     0.095460000000     0.560800000000     0.11163    
H14      H      0.901320000000     0.780040000000     0.452660000000     0.0275152  
H15      H      0.681460000000     0.639910000000     0.533000000000     0.0266193  
H16      H      0.824060000000     0.747400000000     0.516330000000     0.0384844  
H17      H      0.755900000000     0.675270000000     0.468890000000     0.0368146  
H18      H      0.710030000000     0.673130000000     0.503020000000     0.0567842  
H19      H      0.786620000000     0.707660000000     0.438710000000     0.0383196  
H20      H      0.794670000000     0.664630000000     0.557310000000     0.0662675  
H21      H      0.870350000000     0.748630000000     0.483530000000     0.0530008  
H22      H      0.788780000000     0.755960000000     0.424620000000     0.0535989  
H23      H      0.793440000000     0.714810000000     0.546520000000     0.0370598  
H24      H      0.820700000000     0.786740000000     0.394020000000     0.0302267  
H25      H      0.795270000000     0.630380000000     0.593380000000     0.0897816  
H26      H      0.763830000000     0.606050000000     0.598020000000     0.115307   
H27      H      0.191520000000     0.138870000000     0.517150000000     0.0284946  
H28      H      0.403430000000     0.288720000000     0.440760000000     0.0279372  
H29      H      0.235790000000     0.217770000000     0.477140000000     0.0385906  
H30      H      0.356090000000     0.214670000000     0.486080000000     0.0366706  
H31      H      0.371400000000     0.261330000000     0.474110000000     0.056666   
H32      H      0.322740000000     0.186840000000     0.519000000000     0.0388598  
H33      H      0.306240000000     0.239780000000     0.404310000000     0.0659966  
H34      H      0.224310000000     0.168040000000     0.485520000000     0.0535991  
H35      H      0.283000000000     0.191690000000     0.559550000000     0.0537663  
H36      H      0.269040000000     0.245920000000     0.444470000000     0.0371182  
H37      H      0.249730000000     0.162070000000     0.590600000000     0.0290166  
H38      H      0.319250000000     0.253290000000     0.356710000000     0.0896403  
H39      H      0.355850000000     0.270120000000     0.347470000000     0.109771   
H40      H      0.432700000000     0.393760000000     0.440570000000     0.0288602  
H41      H      0.652280000000     0.524510000000     0.536240000000     0.0279558  
H42      H      0.509150000000     0.420010000000     0.507510000000     0.0387322  
H43      H      0.575720000000     0.498370000000     0.470290000000     0.0371287  
H44      H      0.622340000000     0.495480000000     0.502850000000     0.0568517  
H45      H      0.545110000000     0.469720000000     0.435970000000     0.0388343  
H46      H      0.541730000000     0.493700000000     0.562620000000     0.0660451  
H47      H      0.462160000000     0.423500000000     0.474260000000     0.0536527  
H48      H      0.545080000000     0.421900000000     0.416460000000     0.0539045  
H49      H      0.539970000000     0.448380000000     0.541780000000     0.0360638  
H50      H      0.514760000000     0.392360000000     0.383120000000     0.0298605  
H51      H      0.548860000000     0.511740000000     0.609540000000     0.0894448  
H52      H      0.586010000000     0.525210000000     0.622250000000     0.110551   
H53      H      0.822200000000     0.883030000000     0.333870000000     0.0305439  
H54      H      0.762770000000     0.036770000000     0.139680000000     0.0258216  
H55      H      0.785550000000     0.960880000000     0.289080000000     0.0384535  
H56      H      0.809740000000     0.959720000000     0.183030000000     0.0371011  
H57      H      0.797420000000     0.010040000000     0.171710000000     0.0568107  
H58      H      0.841840000000     0.930710000000     0.215910000000     0.0384628  
H59      H      0.713080000000     0.977990000000     0.215600000000     0.0666737  
H60      H      0.792480000000     0.913410000000     0.301380000000     0.0535852  
H61      H      0.881430000000     0.930040000000     0.254270000000     0.0532222  
H62      H      0.753040000000     0.989230000000     0.256030000000     0.0374035  
H63      H      0.910230000000     0.898570000000     0.286800000000     0.0274674  
H64      H      0.661570000000     0.986930000000     0.196070000000     0.0889766  
H65      H      0.655490000000     0.004580000000     0.162970000000     0.112283   
H66      H      0.434900000000     0.279800000000     0.272570000000     0.0274404  
H67      H      0.648710000000     0.133200000000     0.192700000000     0.0276213  
H68      H      0.509130000000     0.243190000000     0.208700000000     0.0384543  
H69      H      0.576450000000     0.171160000000     0.257250000000     0.0367193  
H70      H      0.621220000000     0.167210000000     0.222370000000     0.0567386  
H71      H      0.547770000000     0.205340000000     0.286890000000     0.03844    
H72      H      0.535290000000     0.158370000000     0.169790000000     0.0658806  
H73      H      0.464070000000     0.246700000000     0.242370000000     0.0528936  
H74      H      0.547300000000     0.254120000000     0.299370000000     0.0535737  
H75      H      0.537680000000     0.208840000000     0.179080000000     0.0370848  
H76      H      0.517060000000     0.286680000000     0.329420000000     0.0295629  
H77      H      0.533610000000     0.123450000000     0.134370000000     0.0893044  
H78      H      0.564830000000     0.098920000000     0.129510000000     0.11131    
H79      H      0.263810000000     0.063590000000     0.644440000000     0.0292774  
H80      H      0.317170000000     0.884170000000     0.814450000000     0.0283473  
H81      H      0.306820000000     0.022370000000     0.725350000000     0.038587   
H82      H      0.280460000000     0.921850000000     0.729470000000     0.0364636  
H83      H      0.287440000000     0.914440000000     0.782150000000     0.0567823  
H84      H      0.249290000000     0.952140000000     0.697210000000     0.0384755  
H85      H      0.376780000000     0.954340000000     0.757190000000     0.0657819  
H86      H      0.296720000000     0.032520000000     0.674060000000     0.0534316  
H87      H      0.209480000000     0.989330000000     0.700510000000     0.0537626  
H88      H      0.337980000000     0.992080000000     0.757560000000     0.0362818  
H89      H      0.177480000000     0.020430000000     0.670300000000     0.0291905  
H90      H      0.424410000000     0.943760000000     0.782890000000     0.0887088  
H91      H      0.425490000000     0.921160000000     0.813000000000     0.109495   
H92      H      0.571120000000     0.640720000000     0.630300000000     0.0295658  
H93      H      0.505720000000     0.804750000000     0.813830000000     0.0280097  
H94      H      0.511200000000     0.677680000000     0.706160000000     0.038854   
H95      H      0.562010000000     0.765820000000     0.738940000000     0.0366288  
H96      H      0.537850000000     0.773360000000     0.784920000000     0.0565256  
H97      H      0.594300000000     0.732340000000     0.711450000000     0.0389124  
H98      H      0.454170000000     0.755270000000     0.731840000000     0.0655217  
H99      H      0.538640000000     0.674630000000     0.656800000000     0.0538     
H100     H      0.616610000000     0.683900000000     0.719080000000     0.0539303  
H101     H      0.479030000000     0.710690000000     0.734400000000     0.0365435  
H102     H      0.648370000000     0.649840000000     0.692150000000     0.028617   
H103     H      0.406110000000     0.780310000000     0.739610000000     0.0883782  
H104     H      0.403060000000     0.807890000000     0.764670000000     0.107367   
H105     H      0.632380000000     0.991200000000     0.070770000000     0.0274149  
H106     H      0.422440000000     0.919540000000     0.910750000000     0.0252227  
H107     H      0.545680000000     0.941290000000     0.038830000000     0.0377751  
H108     H      0.507120000000     0.974140000000     0.942220000000     0.0367867  
H109     H      0.451900000000     0.950540000000     0.942790000000     0.0566213  
H110     H      0.539960000000     0.005020000000     0.972540000000     0.0383645  
H111     H      0.520630000000     0.885610000000     0.961300000000     0.0664665  
H112     H      0.598670000000     0.961170000000     0.041060000000     0.05294    
H113     H      0.540360000000     0.032060000000     0.016450000000     0.0527581  
H114     H      0.513490000000     0.910340000000     0.008200000000     0.0362497  
H115     H      0.575410000000     0.061650000000     0.045770000000     0.0285135  
H116     H      0.510070000000     0.840650000000     0.944080000000     0.0897639  
H117     H      0.474560000000     0.831650000000     0.924790000000     0.112547   
H118     H      0.075210000000     0.616110000000     0.167160000000     0.0300249  
H119     H      0.007880000000     0.809830000000     0.314260000000     0.0287825  
H120     H      0.043760000000     0.662170000000     0.249780000000     0.0386298  
H121     H      0.040400000000     0.763840000000     0.232170000000     0.0369187  
H122     H      0.039540000000     0.780970000000     0.282030000000     0.0569507  
H123     H      0.072770000000     0.734250000000     0.200040000000     0.0388654  
H124     H      0.963840000000     0.719370000000     0.283090000000     0.0657606  
H125     H      0.043180000000     0.645800000000     0.198890000000     0.053644   
H126     H      0.122270000000     0.704770000000     0.201040000000     0.0537039  
H127     H      0.011790000000     0.691650000000     0.282070000000     0.0361406  
H128     H      0.153590000000     0.674580000000     0.169000000000     0.0283658  
H129     H      0.920950000000     0.724200000000     0.316000000000     0.0890096  
H130     H      0.918600000000     0.750920000000     0.341930000000     0.109906   
H131     H      0.177810000000     0.648990000000     0.026740000000     0.0281535  
H132     H      0.397580000000     0.778190000000     0.929160000000     0.0248453  
H133     H      0.229440000000     0.725360000000     0.987940000000     0.0385816  
H134     H      0.345340000000     0.703350000000     0.968120000000     0.0365399  
H135     H      0.367820000000     0.749460000000     0.962830000000     0.0561365  
H136     H      0.314900000000     0.674930000000     0.002620000000     0.0387336  
H137     H      0.285320000000     0.750280000000     0.905220000000     0.0661012  
H138     H      0.207280000000     0.678520000000     0.992850000000     0.0534332  
H139     H      0.290040000000     0.677460000000     0.050860000000     0.0538153  
H140     H      0.259950000000     0.753880000000     0.953430000000     0.037124   
H141     H      0.260010000000     0.647570000000     0.084000000000     0.0295177  
H142     H      0.290730000000     0.770590000000     0.859080000000     0.0894871  
H143     H      0.327730000000     0.783770000000     0.845650000000     0.111737   
H144     H      0.327670000000     0.390380000000     0.331490000000     0.0296331  
H145     H      0.264050000000     0.546760000000     0.140210000000     0.0284451  
H146     H      0.290930000000     0.471510000000     0.290510000000     0.038476   
H147     H      0.306300000000     0.469520000000     0.183170000000     0.0370155  
H148     H      0.298030000000     0.518600000000     0.171230000000     0.0569567  
H149     H      0.338670000000     0.438780000000     0.213830000000     0.0386733  
H150     H      0.214740000000     0.497010000000     0.223110000000     0.065925   
H151     H      0.296460000000     0.422760000000     0.302060000000     0.0534399  
H152     H      0.381800000000     0.438240000000     0.249540000000     0.0535149  
H153     H      0.258340000000     0.502140000000     0.259730000000     0.0370827  
H154     H      0.412010000000     0.405230000000     0.279040000000     0.028476   
H155     H      0.163110000000     0.510720000000     0.207620000000     0.0890353  
H156     H      0.155770000000     0.527180000000     0.174110000000     0.109016   
H157     H      0.095640000000     0.176320000000     0.627890000000     0.0271284  
H158     H      0.987040000000     0.266020000000     0.848260000000     0.027      
H159     H      0.017470000000     0.208920000000     0.690400000000     0.0383727  
H160     H      0.065410000000     0.232810000000     0.786540000000     0.0368882  
H161     H      0.016280000000     0.234820000000     0.816540000000     0.0568049  
H162     H      0.094850000000     0.201790000000     0.753850000000     0.0385213  
H163     H      0.994420000000     0.287260000000     0.743290000000     0.0660249  
H164     H      0.065700000000     0.207200000000     0.660110000000     0.0530578  
H165     H      0.092550000000     0.155630000000     0.733330000000     0.053646   
H166     H      0.988120000000     0.240120000000     0.723080000000     0.0370998  
H167     H      0.122810000000     0.125620000000     0.700560000000     0.0287225  
H168     H      0.969460000000     0.330190000000     0.751520000000     0.0892605  
H169     H      0.961350000000     0.343360000000     0.786540000000     0.11168    
H170     H      0.873670000000     0.301290000000     0.959030000000     0.0265196  
H171     H      0.709200000000     0.108490000000     0.021400000000     0.0264196  
H172     H      0.787160000000     0.255800000000     0.999330000000     0.0380552  
H173     H      0.791040000000     0.155490000000     0.974690000000     0.0368834  
H174     H      0.736510000000     0.140810000000     0.989500000000     0.0567158  
H175     H      0.819930000000     0.188730000000     0.943950000000     0.0385479  
H176     H      0.773050000000     0.185060000000     0.064010000000     0.0660856  
H177     H      0.842870000000     0.268610000000     0.988270000000     0.0529105  
H178     H      0.812040000000     0.226930000000     0.909580000000     0.0534537  
H179     H      0.758380000000     0.222560000000     0.030070000000     0.0368415  
H180     H      0.843750000000     0.259820000000     0.880980000000     0.0280331  
H181     H      0.764990000000     0.166410000000     0.110540000000     0.0890251  
H182     H      0.746760000000     0.133890000000     0.116680000000     0.109882   
H183     H      0.672510000000     0.523810000000     0.697950000000     0.026942   
H184     H      0.898800000000     0.405160000000     0.798600000000     0.0262464  
H185     H      0.729810000000     0.447030000000     0.730910000000     0.0383897  
H186     H      0.839020000000     0.477090000000     0.764690000000     0.0364512  
H187     H      0.868060000000     0.434240000000     0.766060000000     0.0563299  
H188     H      0.808220000000     0.506780000000     0.731720000000     0.0386818  
H189     H      0.780480000000     0.414730000000     0.813090000000     0.0658006  
H190     H      0.702070000000     0.493350000000     0.731070000000     0.0533249  
H191     H      0.789240000000     0.506170000000     0.680300000000     0.0534182  
H192     H      0.760860000000     0.416940000000     0.763560000000     0.036763   
H193     H      0.759060000000     0.536510000000     0.647790000000     0.0275764  
H194     H      0.784060000000     0.388470000000     0.855820000000     0.0889213  
H195     H      0.821190000000     0.378390000000     0.871630000000     0.108698   
H196     H      0.072130000000     0.560440000000     0.066060000000     0.0298067  
H197     H      0.012580000000     0.371240000000     0.909630000000     0.0271023  
H198     H      0.030640000000     0.515320000000     0.986880000000     0.0383469  
H199     H      0.060740000000     0.415490000000     0.987770000000     0.0369799  
H200     H      0.046530000000     0.403730000000     0.935860000000     0.0569188  
H201     H      0.092810000000     0.448400000000     0.016210000000     0.0381708  
H202     H      0.961350000000     0.442000000000     0.972340000000     0.0663564  
H203     H      0.041220000000     0.528570000000     0.035920000000     0.0532088  
H204     H      0.130340000000     0.486020000000     0.013490000000     0.0532024  
H205     H      0.998170000000     0.482180000000     0.959070000000     0.0372436  
H206     H      0.160260000000     0.517740000000     0.044710000000     0.0281783  
H207     H      0.910700000000     0.420950000000     0.965180000000     0.0887803  
H208     H      0.905760000000     0.388940000000     0.947300000000     0.111865   
In1      In     0.914420000000     0.338040000000     0.870420000000     2.41099    
In2      In     0.168730000000     0.592910000000     0.111700000000     2.40404    
In3      In     0.409530000000     0.840730000000     0.852200000000     2.41207    
In4      In     0.664850000000     0.078000000000     0.109980000000     2.40214    
In5      In     0.422750000000     0.338660000000     0.355120000000     2.41252    
In6      In     0.664820000000     0.584350000000     0.615840000000     2.41372    
In7      In     0.916010000000     0.836480000000     0.368130000000     2.40557    
In8      In     0.163170000000     0.098040000000     0.607750000000     2.40713    
N1       N      0.107640000000     0.048040000000     0.555640000000    -0.215025   
N2       N      0.964090000000     0.889230000000     0.422700000000    -0.19551    
N3       N      0.059950000000     0.077310000000     0.555290000000    -0.219407   
N4       N      0.720970000000     0.633060000000     0.562920000000    -0.214614   
N5       N      0.863270000000     0.785510000000     0.421130000000    -0.195865   
N6       N      0.771190000000     0.624810000000     0.588840000000    -0.21965    
N7       N      0.373260000000     0.281060000000     0.403270000000    -0.214247   
N8       N      0.218320000000     0.148380000000     0.556090000000    -0.195644   
N9       N      0.339830000000     0.264090000000     0.363900000000    -0.218785   
N10      N      0.614820000000     0.526100000000     0.568990000000    -0.214256   
N11      N      0.471670000000     0.390870000000     0.409540000000    -0.195043   
N12      N      0.572180000000     0.518930000000     0.604390000000    -0.218702   
N13      N      0.717680000000     0.023350000000     0.158950000000    -0.21473    
N14      N      0.868300000000     0.888640000000     0.312650000000    -0.195756   
N15      N      0.671400000000     0.999770000000     0.179900000000    -0.219004   
N16      N      0.608540000000     0.126120000000     0.163510000000    -0.213898   
N17      N      0.473840000000     0.285490000000     0.303180000000    -0.195945   
N18      N      0.557740000000     0.117810000000     0.138580000000    -0.218949   
N19      N      0.364330000000     0.901340000000     0.804880000000    -0.214092   
N20      N      0.218340000000     0.044280000000     0.655340000000    -0.195157   
N21      N      0.412490000000     0.928450000000     0.795070000000    -0.218879   
N22      N      0.460940000000     0.797730000000     0.790680000000    -0.215113   
N23      N      0.611980000000     0.642830000000     0.659380000000    -0.19583    
N24      N      0.416370000000     0.790870000000     0.757300000000    -0.219049   
N25      N      0.454410000000     0.884660000000     0.916960000000    -0.21499    
N26      N      0.606320000000     0.028540000000     0.060350000000    -0.195824   
N27      N      0.489460000000     0.847430000000     0.932750000000    -0.219333   
N28      N      0.967570000000     0.781520000000     0.318050000000    -0.214386   
N29      N      0.116660000000     0.643220000000     0.165850000000    -0.194978   
N30      N      0.929480000000     0.743570000000     0.322940000000    -0.21904    
N31      N      0.358890000000     0.781740000000     0.897740000000    -0.215242   
N32      N      0.216870000000     0.646050000000     0.057660000000    -0.195812   
N33      N      0.314500000000     0.777010000000     0.863680000000    -0.219015   
N34      N      0.219510000000     0.538720000000     0.163420000000    -0.214751   
N35      N      0.371970000000     0.395400000000     0.307270000000    -0.195768   
N36      N      0.172790000000     0.521510000000     0.189830000000    -0.218931   
N37      N      0.973040000000     0.294660000000     0.814490000000    -0.214697   
N38      N      0.111410000000     0.148860000000     0.661930000000    -0.197215   
N39      N      0.967300000000     0.326150000000     0.773850000000    -0.219221   
N40      N      0.724450000000     0.128040000000     0.061330000000    -0.2167     
N41      N      0.860930000000     0.282850000000     0.917960000000    -0.197414   
N42      N      0.751060000000     0.150090000000     0.102130000000    -0.219084   
N43      N      0.857870000000     0.392370000000     0.824610000000    -0.214491   
N44      N      0.713700000000     0.532370000000     0.670620000000    -0.196675   
N45      N      0.809200000000     0.386010000000     0.853290000000    -0.218898   
N46      N      0.967120000000     0.387680000000     0.925280000000    -0.215119   
N47      N      0.118320000000     0.541260000000     0.057640000000    -0.195638   
N48      N      0.920850000000     0.405840000000     0.951550000000    -0.21922    
O1       O      0.894970000000     0.320690000000     0.913270000000    -0.515793   
O2       O      0.880450000000     0.300360000000     0.874320000000    -0.503143   
O3       O      0.907450000000     0.375100000000     0.840240000000    -0.504737   
O4       O      0.919580000000     0.374560000000     0.901680000000    -0.510856   
O5       O      0.954600000000     0.306460000000     0.860620000000    -0.501823   
O6       O      0.961820000000     0.350850000000     0.893040000000    -0.501922   
O7       O      0.865080000000     0.354170000000     0.854920000000    -0.508828   
O8       O      0.932070000000     0.326380000000     0.824800000000    -0.508693   
O9       O      0.171950000000     0.620080000000     0.070960000000    -0.508753   
O10      O      0.212780000000     0.619390000000     0.099440000000    -0.496129   
O11      O      0.123370000000     0.603680000000     0.137960000000    -0.491852   
O12      O      0.122100000000     0.578670000000     0.089030000000    -0.492345   
O13      O      0.213580000000     0.566700000000     0.122660000000    -0.498393   
O14      O      0.165510000000     0.556290000000     0.080070000000    -0.506175   
O15      O      0.162950000000     0.632080000000     0.139590000000    -0.503116   
O16      O      0.174760000000     0.566470000000     0.152840000000    -0.514453   
O17      O      0.411150000000     0.875660000000     0.886020000000    -0.511281   
O18      O      0.452190000000     0.849250000000     0.882760000000    -0.498589   
O19      O      0.362960000000     0.816600000000     0.862860000000    -0.499255   
O20      O      0.364780000000     0.865530000000     0.838610000000    -0.496857   
O21      O      0.456610000000     0.828970000000     0.828840000000    -0.500742   
O22      O      0.409850000000     0.876070000000     0.819020000000    -0.514698   
O23      O      0.405730000000     0.805910000000     0.885850000000    -0.516491   
O24      O      0.412990000000     0.810370000000     0.813930000000    -0.518373   
O25      O      0.619010000000     0.103180000000     0.119920000000    -0.501021   
O26      O      0.654790000000     0.100510000000     0.152950000000    -0.49833    
O27      O      0.622230000000     0.071280000000     0.078480000000    -0.489569   
O28      O      0.691600000000     0.089460000000     0.067820000000    -0.512011   
O29      O      0.670480000000     0.047670000000     0.147730000000    -0.503488   
O30      O      0.697220000000     0.116230000000     0.103920000000    -0.516742   
O31      O      0.649090000000     0.035890000000     0.092050000000    -0.507288   
O32      O      0.711730000000     0.054710000000     0.120940000000    -0.508869   
O33      O      0.467440000000     0.364170000000     0.367790000000    -0.49629    
O34      O      0.426340000000     0.365560000000     0.395960000000    -0.503245   
O35      O      0.376790000000     0.363550000000     0.344760000000    -0.498655   
O36      O      0.428050000000     0.311050000000     0.314850000000    -0.5084     
O37      O      0.417620000000     0.309390000000     0.394070000000    -0.505594   
O38      O      0.468540000000     0.314010000000     0.343480000000    -0.49833    
O39      O      0.418420000000     0.370410000000     0.318250000000    -0.506617   
O40      O      0.378910000000     0.310640000000     0.363610000000    -0.502315   
O41      O      0.674840000000     0.606990000000     0.572830000000    -0.504721   
O42      O      0.709570000000     0.610870000000     0.606660000000    -0.505908   
O43      O      0.661190000000     0.551300000000     0.580230000000    -0.506497   
O44      O      0.667500000000     0.555980000000     0.655890000000    -0.507008   
O45      O      0.657300000000     0.614990000000     0.653350000000    -0.505257   
O46      O      0.710220000000     0.560970000000     0.630340000000    -0.504979   
O47      O      0.618970000000     0.559650000000     0.605200000000    -0.503669   
O48      O      0.620150000000     0.612200000000     0.621280000000    -0.499605   
O49      O      0.909930000000     0.809940000000     0.409290000000    -0.507007   
O50      O      0.869990000000     0.812600000000     0.380030000000    -0.493218   
O51      O      0.960780000000     0.849920000000     0.393970000000    -0.49393    
O52      O      0.962620000000     0.821500000000     0.345830000000    -0.496268   
O53      O      0.870900000000     0.859440000000     0.352460000000    -0.496628   
O54      O      0.919920000000     0.797870000000     0.339310000000    -0.513826   
O55      O      0.918350000000     0.874940000000     0.397420000000    -0.506186   
O56      O      0.914440000000     0.865370000000     0.328280000000    -0.505897   
O57      O      0.114110000000     0.082740000000     0.590440000000    -0.510153   
O58      O      0.156800000000     0.063750000000     0.573960000000    -0.506387   
O59      O      0.144310000000     0.110980000000     0.652690000000    -0.506715   
O60      O      0.212080000000     0.081980000000     0.624590000000    -0.495588   
O61      O      0.176660000000     0.117050000000     0.563850000000    -0.506017   
O62      O      0.169270000000     0.060430000000     0.637510000000    -0.499724   
O63      O      0.130300000000     0.135630000000     0.616500000000    -0.507124   
O64      O      0.204500000000     0.129290000000     0.600740000000    -0.495039   


