data_structure

_audit_creation_method RASPA-1.0
_audit_creation_date 2023-5-22
_audit_author_name 'Poobodin Mano'

_cell_length_a    44.4212
_cell_length_b    44.4488
_cell_length_c    46.6575
_cell_angle_alpha 90
_cell_angle_beta  90
_cell_angle_gamma 90
_cell_volume      92123.8

_symmetry_cell_setting          triclinic
_symmetry_space_group_name_Hall 'P 1'
_symmetry_space_group_name_H-M  'P 1'
_symmetry_Int_Tables_number     1

_symmetry_equiv_pos_as_xyz 'x,y,z'

loop_
_atom_site_label
_atom_site_type_symbol
_atom_site_fract_x
_atom_site_fract_y
_atom_site_fract_z
_atom_site_charge
C1       C      0.920780000000     0.351480000000     0.825190000000     0.416033   
C2       C      0.920190000000     0.417830000000     0.898500000000     0.424068   
C3       C      0.852170000000     0.417970000000     0.826810000000     0.424356   
C4       C      0.852510000000     0.351030000000     0.898280000000     0.43027    
C5       C      0.101840000000     0.601020000000     0.076370000000     0.412838   
C6       C      0.169780000000     0.600690000000     0.146420000000     0.427605   
C7       C      0.170210000000     0.669200000000     0.075070000000     0.417373   
C8       C      0.102590000000     0.669570000000     0.147120000000     0.42665    
C9       C      0.347620000000     0.850050000000     0.891100000000     0.426008   
C10      C      0.416410000000     0.922390000000     0.892670000000     0.428224   
C11      C      0.419590000000     0.851460000000     0.825740000000     0.415834   
C12      C      0.347270000000     0.919630000000     0.823930000000     0.426151   
C13      C      0.668180000000     0.167820000000     0.073620000000     0.410979   
C14      C      0.668490000000     0.097200000000     0.145060000000     0.416659   
C15      C      0.604640000000     0.171130000000     0.143170000000     0.413709   
C16      C      0.601360000000     0.096940000000     0.075520000000     0.409916   
C17      C      0.352740000000     0.417750000000     0.323280000000     0.414332   
C18      C      0.420880000000     0.419730000000     0.395270000000     0.430142   
C19      C      0.351240000000     0.350650000000     0.391780000000     0.423881   
C20      C      0.425610000000     0.351490000000     0.326380000000     0.423563   
C21      C      0.670510000000     0.601110000000     0.649100000000     0.414069   
C22      C      0.599220000000     0.668270000000     0.645980000000     0.423185   
C23      C      0.672370000000     0.666120000000     0.579100000000     0.413384   
C24      C      0.600510000000     0.599350000000     0.578250000000     0.416298   
C25      C      0.850960000000     0.846470000000     0.396010000000     0.429761   
C26      C      0.919700000000     0.850510000000     0.325930000000     0.417336   
C27      C      0.847340000000     0.917050000000     0.328250000000     0.427159   
C28      C      0.917430000000     0.917960000000     0.396360000000     0.412463   
C29      C      0.099090000000     0.172080000000     0.640800000000     0.423992   
C30      C      0.098290000000     0.102420000000     0.573960000000     0.426456   
C31      C      0.169060000000     0.171120000000     0.572750000000     0.414871   
C32      C      0.168420000000     0.101090000000     0.641770000000     0.419311   
C33      C      0.043360000000     0.079300000000     0.519140000000    -0.166736   
C34      C      0.952830000000     0.922920000000     0.434230000000     0.0770397  
C35      C      0.933570000000     0.966450000000     0.411270000000     0.0762484  
C36      C      0.970580000000     0.940710000000     0.452220000000    -0.0935516  
C37      C      0.018430000000     0.983120000000     0.475250000000    -0.0371749  
C38      C      0.036240000000     0.001390000000     0.492770000000    -0.028319   
C39      C      0.988720000000     0.991440000000     0.468520000000    -0.00360226 
C40      C      0.951000000000     0.984910000000     0.428900000000    -0.0932321  
C41      C      0.024770000000     0.028420000000     0.503970000000    -0.0184193  
C42      C      0.062650000000     0.035590000000     0.543290000000    -0.11352    
C43      C      0.995030000000     0.036700000000     0.497320000000    -0.0280643  
C44      C      0.080480000000     0.054300000000     0.560280000000     0.0868801  
C45      C      0.061410000000     0.097560000000     0.536530000000     0.248463   
C46      C      0.977220000000     0.018420000000     0.479820000000    -0.0372531  
C47      C      0.969850000000     0.972120000000     0.449690000000     0.0506106  
C48      C      0.043810000000     0.048000000000     0.522380000000     0.0834965  
C49      C      0.812330000000     0.779950000000     0.425200000000    -0.166857   
C50      C      0.699270000000     0.711260000000     0.569940000000     0.0776345  
C51      C      0.700110000000     0.671670000000     0.535900000000     0.0762652  
C52      C      0.717320000000     0.729010000000     0.552200000000    -0.0929408  
C53      C      0.768280000000     0.755800000000     0.517520000000    -0.0370149  
C54      C      0.785680000000     0.773750000000     0.499350000000    -0.0282249  
C55      C      0.745990000000     0.736620000000     0.506320000000    -0.00357681 
C56      C      0.718370000000     0.688700000000     0.517730000000    -0.0933232  
C57      C      0.781390000000     0.772740000000     0.469540000000    -0.018585   
C58      C      0.804760000000     0.822170000000     0.456600000000    -0.113786   
C59      C      0.759310000000     0.753460000000     0.458270000000    -0.0281395  
C60      C      0.821810000000     0.839920000000     0.438030000000     0.0885286  
C61      C      0.829470000000     0.798220000000     0.407000000000     0.246784   
C62      C      0.741730000000     0.735700000000     0.476440000000    -0.0370338  
C63      C      0.727090000000     0.717860000000     0.525670000000     0.0506587  
C64      C      0.799780000000     0.791850000000     0.450240000000     0.0839187  
C65      C      0.303600000000     0.288150000000     0.416790000000    -0.165505   
C66      C      0.194910000000     0.216910000000     0.563560000000     0.076327   
C67      C      0.195640000000     0.177760000000     0.529020000000     0.0776705  
C68      C      0.212770000000     0.234960000000     0.545910000000    -0.0933775  
C69      C      0.265490000000     0.259470000000     0.511160000000    -0.0371853  
C70      C      0.283410000000     0.277110000000     0.493180000000    -0.0279882  
C71      C      0.241060000000     0.243130000000     0.500040000000    -0.0035634  
C72      C      0.213310000000     0.195290000000     0.510740000000    -0.0933196  
C73      C      0.277220000000     0.279010000000     0.463660000000    -0.0179273  
C74      C      0.307590000000     0.325550000000     0.453800000000    -0.112562   
C75      C      0.252660000000     0.262730000000     0.452590000000    -0.0278175  
C76      C      0.325790000000     0.342730000000     0.435720000000     0.0867612  
C77      C      0.321650000000     0.305980000000     0.398980000000     0.247271   
C78      C      0.234860000000     0.244930000000     0.470560000000    -0.0370793  
C79      C      0.222140000000     0.224240000000     0.519130000000     0.0510176  
C80      C      0.296330000000     0.297810000000     0.444510000000     0.0830656  
C81      C      0.444830000000     0.482670000000     0.441150000000    -0.167006   
C82      C      0.593150000000     0.554570000000     0.551410000000     0.0766633  
C83      C      0.555040000000     0.591930000000     0.552380000000     0.0755766  
C84      C      0.575550000000     0.536530000000     0.533550000000    -0.0939484  
C85      C      0.526350000000     0.496210000000     0.509760000000    -0.0374061  
C86      C      0.508590000000     0.478460000000     0.491720000000    -0.0283445  
C87      C      0.528050000000     0.527520000000     0.505740000000    -0.00395451 
C88      C      0.536860000000     0.574470000000     0.534480000000    -0.0937407  
C89      C      0.492140000000     0.491590000000     0.469230000000    -0.0186621  
C90      C      0.483440000000     0.444780000000     0.440300000000    -0.113784   
C91      C      0.493860000000     0.522900000000     0.465210000000    -0.0283212  
C92      C      0.465470000000     0.427530000000     0.422080000000     0.0863121  
C93      C      0.427320000000     0.464980000000     0.422770000000     0.246818   
C94      C      0.511590000000     0.540650000000     0.483250000000    -0.0373974  
C95      C      0.547030000000     0.546390000000     0.524840000000     0.0505428  
C96      C      0.473230000000     0.472750000000     0.450030000000     0.0831562  
C97      C      0.779800000000     0.948520000000     0.293720000000    -0.166656   
C98      C      0.715240000000     0.085390000000     0.166940000000     0.0763443  
C99      C      0.672050000000     0.056070000000     0.177470000000     0.07537    
C100     C      0.732700000000     0.067740000000     0.185260000000    -0.0936145  
C101     C      0.760880000000     0.037890000000     0.236790000000    -0.0370912  
C102     C      0.778600000000     0.020120000000     0.254810000000    -0.0285902  
C103     C      0.737910000000     0.024920000000     0.220070000000    -0.0039636  
C104     C      0.688800000000     0.038110000000     0.196190000000    -0.093351   
C105     C      0.773590000000     0.989000000000     0.256810000000    -0.0186472  
C106     C      0.823970000000     0.973450000000     0.275730000000    -0.114054   
C107     C      0.750430000000     0.976010000000     0.240460000000    -0.0285879  
C108     C      0.841670000000     0.955330000000     0.293390000000     0.0872342  
C109     C      0.798080000000     0.930750000000     0.311380000000     0.245792   
C110     C      0.732880000000     0.993730000000     0.222200000000    -0.0371458  
C111     C      0.719560000000     0.043800000000     0.200300000000     0.0502788  
C112     C      0.792680000000     0.970110000000     0.275690000000     0.0832111  
C113     C      0.470140000000     0.288040000000     0.298580000000    -0.16545    
C114     C      0.559480000000     0.197530000000     0.153580000000     0.0768061  
C115     C      0.601080000000     0.201080000000     0.185230000000     0.0761435  
C116     C      0.542340000000     0.215990000000     0.171480000000    -0.0932801  
C117     C      0.515960000000     0.267600000000     0.205420000000    -0.0372181  
C118     C      0.498280000000     0.285040000000     0.223790000000    -0.0282495  
C119     C      0.536620000000     0.246600000000     0.216460000000    -0.00358842 
C120     C      0.584670000000     0.219810000000     0.203510000000    -0.0934405  
C121     C      0.500950000000     0.282150000000     0.253710000000    -0.0179723  
C122     C      0.474440000000     0.330240000000     0.266630000000    -0.112961   
C123     C      0.521890000000     0.261440000000     0.264750000000    -0.0281396  
C124     C      0.455760000000     0.346770000000     0.284800000000     0.085771   
C125     C      0.451760000000     0.305260000000     0.316620000000     0.246094   
C126     C      0.539420000000     0.243820000000     0.246380000000    -0.0371494  
C127     C      0.554810000000     0.227360000000     0.196880000000     0.0503971  
C128     C      0.481720000000     0.300400000000     0.273260000000     0.0824917  
C129     C      0.297790000000     0.942390000000     0.764480000000    -0.16617    
C130     C      0.173540000000     0.071350000000     0.683790000000     0.0768088  
C131     C      0.215200000000     0.077780000000     0.652590000000     0.0759621  
C132     C      0.190870000000     0.053490000000     0.702070000000    -0.0939968  
C133     C      0.237940000000     0.031680000000     0.744610000000    -0.0371703  
C134     C      0.255540000000     0.013760000000     0.762650000000    -0.0282684  
C135     C      0.239830000000     0.028580000000     0.714670000000    -0.00393567 
C136     C      0.233150000000     0.059940000000     0.670350000000    -0.0937171  
C137     C      0.275350000000     0.992250000000     0.751180000000    -0.018227   
C138     C      0.308090000000     0.985110000000     0.794500000000    -0.112865   
C139     C      0.277260000000     0.989160000000     0.721240000000    -0.0282258  
C140     C      0.325710000000     0.966760000000     0.812060000000     0.0865435  
C141     C      0.315640000000     0.924500000000     0.782400000000     0.24741    
C142     C      0.259730000000     0.007140000000     0.703200000000    -0.0371777  
C143     C      0.221070000000     0.047570000000     0.695480000000     0.0506335  
C144     C      0.293940000000     0.973020000000     0.770320000000     0.0831792  
C145     C      0.554390000000     0.732310000000     0.672000000000    -0.166619   
C146     C      0.444390000000     0.804980000000     0.817050000000     0.0762439  
C147     C      0.448670000000     0.844830000000     0.783510000000     0.0771607  
C148     C      0.462360000000     0.786560000000     0.799860000000    -0.0933553  
C149     C      0.485860000000     0.747180000000     0.751770000000    -0.0371249  
C150     C      0.503330000000     0.729020000000     0.733840000000    -0.0289641  
C151     C      0.492400000000     0.777980000000     0.754910000000    -0.00397907 
C152     C      0.466560000000     0.826980000000     0.765730000000    -0.0937051  
C153     C      0.527630000000     0.741260000000     0.718490000000    -0.0185373  
C154     C      0.555360000000     0.693450000000     0.707830000000    -0.113532   
C155     C      0.534240000000     0.772000000000     0.721630000000    -0.0286607  
C156     C      0.573020000000     0.675920000000     0.689570000000     0.0855778  
C157     C      0.571800000000     0.714120000000     0.653960000000     0.246343   
C158     C      0.516900000000     0.790120000000     0.739690000000    -0.0370143  
C159     C      0.473610000000     0.797410000000     0.773760000000     0.0507041  
C160     C      0.546000000000     0.722080000000     0.699200000000     0.0828606  
C161     C      0.440600000000     0.968800000000     0.953830000000    -0.166776   
C162     C      0.594340000000     0.070200000000     0.031940000000     0.0746163  
C163     C      0.555220000000     0.071650000000     0.066480000000     0.0757914  
C164     C      0.576440000000     0.052920000000     0.013640000000    -0.09319    
C165     C      0.527800000000     0.031930000000     0.972670000000    -0.0373516  
C166     C      0.509360000000     0.015040000000     0.954480000000    -0.0284621  
C167     C      0.527580000000     0.026890000000     0.002440000000    -0.00371857 
C168     C      0.536670000000     0.054490000000     0.048670000000    -0.0931897  
C169     C      0.490140000000     0.992830000000     0.965640000000    -0.0186456  
C170     C      0.481510000000     0.963490000000     0.920470000000    -0.113628   
C171     C      0.489870000000     0.987790000000     0.995380000000    -0.0282477  
C172     C      0.462900000000     0.946160000000     0.902900000000     0.0860415  
C173     C      0.422410000000     0.951370000000     0.935800000000     0.246405   
C174     C      0.508410000000     0.004560000000     0.013550000000    -0.0375679  
C175     C      0.547140000000     0.044930000000     0.021830000000     0.0499385  
C176     C      0.470490000000     0.974890000000     0.946360000000     0.0829892  
C177     C      0.080410000000     0.721630000000     0.204720000000    -0.166348   
C178     C      0.925290000000     0.817950000000     0.285930000000     0.0777242  
C179     C      0.968100000000     0.832240000000     0.313080000000     0.0765333  
C180     C      0.943200000000     0.800230000000     0.268040000000    -0.0935973  
C181     C      0.988820000000     0.778110000000     0.224450000000    -0.0372497  
C182     C      0.006850000000     0.759960000000     0.207020000000    -0.028365   
C183     C      0.993640000000     0.779280000000     0.254210000000    -0.00361386 
C184     C      0.986680000000     0.814750000000     0.295610000000    -0.0932337  
C185     C      0.030140000000     0.742590000000     0.218940000000    -0.0184007  
C186     C      0.036590000000     0.706330000000     0.178220000000    -0.113506   
C187     C      0.035020000000     0.743810000000     0.248680000000    -0.0281857  
C188     C      0.054900000000     0.688430000000     0.160910000000     0.0863602  
C189     C      0.098260000000     0.703440000000     0.187070000000     0.245946   
C190     C      0.016970000000     0.761930000000     0.266120000000    -0.0371936  
C191     C      0.974300000000     0.798370000000     0.272800000000     0.050853   
C192     C      0.049280000000     0.723270000000     0.200400000000     0.0829998  
C193     C      0.281810000000     0.809770000000     0.919870000000    -0.165751   
C194     C      0.204540000000     0.672790000000     0.036150000000     0.0767247  
C195     C      0.187120000000     0.717060000000     0.059180000000     0.0764966  
C196     C      0.221990000000     0.689940000000     0.017350000000    -0.0935863  
C197     C      0.269690000000     0.731040000000     0.991910000000    -0.0371246  
C198     C      0.287150000000     0.748800000000     0.973600000000    -0.0283039  
C199     C      0.240480000000     0.740070000000     0.999710000000    -0.00368085 
C200     C      0.204320000000     0.734880000000     0.040760000000    -0.093345   
C201     C      0.275810000000     0.776010000000     0.962650000000    -0.0182264  
C202     C      0.325240000000     0.799240000000     0.948930000000    -0.113618   
C203     C      0.246540000000     0.784950000000     0.970330000000    -0.028117   
C204     C      0.342410000000     0.817590000000     0.931020000000     0.0876901  
C205     C      0.299530000000     0.828210000000     0.902320000000     0.245929   
C206     C      0.229090000000     0.767190000000     0.988630000000    -0.0371186  
C207     C      0.222030000000     0.721400000000     0.019490000000     0.0506802  
C208     C      0.294530000000     0.795160000000     0.943530000000     0.0831302  
C209     C      0.191830000000     0.542660000000     0.198620000000    -0.166361   
C210     C      0.347230000000     0.457910000000     0.290160000000     0.0771279  
C211     C      0.304730000000     0.428750000000     0.303420000000     0.0760272  
C212     C      0.329380000000     0.475750000000     0.272340000000    -0.0940998  
C213     C      0.288520000000     0.497700000000     0.224220000000    -0.0374826  
C214     C      0.270380000000     0.515960000000     0.207010000000    -0.0282212  
C215     C      0.279050000000     0.489310000000     0.251810000000    -0.00383961 
C216     C      0.286170000000     0.446310000000     0.285970000000    -0.0935511  
C217     C      0.242420000000     0.526430000000     0.217070000000    -0.0183647  
C218     C      0.235920000000     0.568220000000     0.181360000000    -0.113215   
C219     C      0.233000000000     0.518010000000     0.244720000000    -0.0280589  
C220     C      0.217560000000     0.586200000000     0.164160000000     0.0868542  
C221     C      0.173900000000     0.561200000000     0.181390000000     0.24644    
C222     C      0.251060000000     0.499580000000     0.261850000000    -0.0373519  
C223     C      0.298440000000     0.470160000000     0.270200000000     0.0508362  
C224     C      0.223160000000     0.546010000000     0.198800000000     0.0829951  
C225     C      0.032660000000     0.207590000000     0.673690000000    -0.165994   
C226     C      0.968820000000     0.336810000000     0.807740000000     0.0761013  
C227     C      0.924610000000     0.315860000000     0.787400000000     0.0764951  
C228     C      0.986780000000     0.319660000000     0.789400000000    -0.0937917  
C229     C      0.018110000000     0.267030000000     0.760390000000    -0.0374238  
C230     C      0.035650000000     0.249270000000     0.742180000000    -0.0288171  
C231     C      0.992130000000     0.281490000000     0.750110000000    -0.00391139 
C232     C      0.941880000000     0.298470000000     0.768650000000    -0.0934935  
C233     C      0.027680000000     0.245610000000     0.713210000000    -0.0183701  
C234     C      0.077680000000     0.226780000000     0.695680000000    -0.113368   
C235     C      0.001740000000     0.260190000000     0.702920000000    -0.028422   
C236     C      0.094740000000     0.208430000000     0.677650000000     0.08688    
C237     C      0.050320000000     0.189330000000     0.655920000000     0.245491   
C238     C      0.984140000000     0.277880000000     0.721160000000    -0.0371936  
C239     C      0.973370000000     0.300150000000     0.769570000000     0.0506043  
C240     C      0.046240000000     0.226500000000     0.693910000000     0.08259    
C241     C      0.793240000000     0.328970000000     0.949250000000    -0.166126   
C242     C      0.709250000000     0.173690000000     0.041540000000     0.0767998  
C243     C      0.678510000000     0.215620000000     0.053020000000     0.075457   
C244     C      0.727240000000     0.191630000000     0.023940000000    -0.0939072  
C245     C      0.750180000000     0.231850000000     0.975890000000    -0.0372205  
C246     C      0.768700000000     0.250020000000     0.958970000000    -0.0281262  
C247     C      0.740240000000     0.241830000000     0.002850000000    -0.00385329 
C248     C      0.696160000000     0.234270000000     0.035740000000    -0.0935927  
C249     C      0.777850000000     0.278550000000     0.968680000000    -0.0181323  
C250     C      0.821200000000     0.285250000000     0.934720000000    -0.113009   
C251     C      0.767850000000     0.288520000000     0.995660000000    -0.0279451  
C252     C      0.839290000000     0.303570000000     0.917590000000     0.0883059  
C253     C      0.811890000000     0.346870000000     0.932080000000     0.247957   
C254     C      0.749190000000     0.270410000000     0.012510000000    -0.0373177  
C255     C      0.720910000000     0.222340000000     0.021000000000     0.0506366  
C256     C      0.797700000000     0.297830000000     0.950700000000     0.0836397  
C257     C      0.786320000000     0.448830000000     0.789080000000    -0.166649   
C258     C      0.718030000000     0.591680000000     0.670700000000     0.0756697  
C259     C      0.676520000000     0.559860000000     0.680890000000     0.0770898  
C260     C      0.736610000000     0.574380000000     0.688370000000    -0.0936527  
C261     C      0.773430000000     0.522340000000     0.712600000000    -0.0374276  
C262     C      0.791340000000     0.503880000000     0.729860000000    -0.0282215  
C263     C      0.744230000000     0.530380000000     0.721320000000    -0.00384079 
C264     C      0.694400000000     0.542180000000     0.698810000000    -0.093996   
C265     C      0.780480000000     0.493150000000     0.756270000000    -0.0184607  
C266     C      0.830200000000     0.478070000000     0.777510000000    -0.113359   
C267     C      0.751400000000     0.501540000000     0.765100000000    -0.0280422  
C268     C      0.847360000000     0.459180000000     0.794950000000     0.0869727  
C269     C      0.804000000000     0.430380000000     0.806600000000     0.247229   
C270     C      0.733470000000     0.519880000000     0.747810000000    -0.0373914  
C271     C      0.724850000000     0.549270000000     0.702660000000     0.0506896  
C272     C      0.799260000000     0.473110000000     0.774470000000     0.0832882  
C273     C      0.975130000000     0.440350000000     0.953510000000    -0.166787   
C274     C      0.064390000000     0.596410000000     0.040270000000     0.0766945  
C275     C      0.086370000000     0.552680000000     0.060530000000     0.0766049  
C276     C      0.046150000000     0.578730000000     0.022610000000    -0.0935459  
C277     C      0.998480000000     0.535380000000     0.000620000000    -0.0371819  
C278     C      0.980380000000     0.517140000000     0.983350000000    -0.0283466  
C279     C      0.028860000000     0.528050000000     0.005380000000    -0.0037938  
C280     C      0.068520000000     0.534340000000     0.043190000000    -0.0930559  
C281     C      0.992250000000     0.491140000000     0.970420000000    -0.0184895  
C282     C      0.952720000000     0.484400000000     0.932570000000    -0.11349    
C283     C      0.022650000000     0.483860000000     0.975130000000    -0.0282097  
C284     C      0.935250000000     0.465860000000     0.915100000000     0.0863011  
C285     C      0.957420000000     0.422260000000     0.935650000000     0.246273   
C286     C      0.040730000000     0.502090000000     0.992390000000    -0.0372006  
C287     C      0.048070000000     0.547280000000     0.023930000000     0.0506584  
C288     C      0.973070000000     0.471730000000     0.952000000000     0.0830168  
H1       H      0.919380000000     0.977200000000     0.395370000000     0.0305406  
H2       H      0.094720000000     0.043630000000     0.576190000000     0.0272866  
H3       H      0.954270000000     0.025250000000     0.475450000000     0.0404166  
H4       H      0.059200000000     0.994590000000     0.497130000000     0.0380482  
H5       H      0.063420000000     0.011510000000     0.546780000000     0.059636   
H6       H      0.028150000000     0.962720000000     0.466550000000     0.0403202  
H7       H      0.029320000000     0.089710000000     0.502940000000     0.0838592  
H8       H      0.950020000000     0.009060000000     0.425940000000     0.0551137  
H9       H      0.984510000000     0.929880000000     0.468230000000     0.0549562  
H10      H      0.985350000000     0.057140000000     0.505970000000     0.0381901  
H11      H      0.953990000000     0.898710000000     0.436890000000     0.0306723  
H12      H      0.043950000000     0.135320000000     0.545260000000     0.160972   
H13      H      0.693780000000     0.649260000000     0.528940000000     0.0294552  
H14      H      0.825000000000     0.863350000000     0.443800000000     0.0284753  
H15      H      0.724440000000     0.721640000000     0.467060000000     0.0400607  
H16      H      0.802800000000     0.788130000000     0.508600000000     0.0382351  
H17      H      0.795190000000     0.832290000000     0.475660000000     0.0606375  
H18      H      0.772570000000     0.756720000000     0.540350000000     0.0401879  
H19      H      0.809110000000     0.756460000000     0.419780000000     0.0833669  
H20      H      0.725770000000     0.678910000000     0.497680000000     0.0546285  
H21      H      0.723090000000     0.751550000000     0.559100000000     0.0554742  
H22      H      0.755240000000     0.752520000000     0.435400000000     0.0381188  
H23      H      0.692040000000     0.720790000000     0.590200000000     0.0331657  
H24      H      0.825750000000     0.788140000000     0.367740000000     0.155198   
H25      H      0.189370000000     0.155420000000     0.521830000000     0.031544   
H26      H      0.334010000000     0.364020000000     0.443940000000     0.0294924  
H27      H      0.215930000000     0.232920000000     0.461430000000     0.041311   
H28      H      0.302440000000     0.288890000000     0.502380000000     0.0380695  
H29      H      0.302180000000     0.334210000000     0.474870000000     0.0599678  
H30      H      0.271070000000     0.258200000000     0.533730000000     0.0405367  
H31      H      0.295710000000     0.266620000000     0.408920000000     0.083928   
H32      H      0.220340000000     0.186050000000     0.490330000000     0.0561302  
H33      H      0.218860000000     0.257330000000     0.553070000000     0.0552087  
H34      H      0.246890000000     0.264050000000     0.430080000000     0.0381303  
H35      H      0.187990000000     0.226040000000     0.584080000000     0.0304091  
H36      H      0.311880000000     0.303020000000     0.359590000000     0.156824   
H37      H      0.546360000000     0.613480000000     0.559470000000     0.028472   
H38      H      0.474380000000     0.406050000000     0.415020000000     0.0261802  
H39      H      0.512800000000     0.564630000000     0.479280000000     0.0399744  
H40      H      0.507410000000     0.454480000000     0.495670000000     0.0377819  
H41      H      0.505420000000     0.436380000000     0.446370000000     0.0592366  
H42      H      0.538390000000     0.485450000000     0.527150000000     0.0400682  
H43      H      0.435970000000     0.504000000000     0.448580000000     0.0831828  
H44      H      0.514810000000     0.582810000000     0.528560000000     0.0546588  
H45      H      0.584470000000     0.515160000000     0.526310000000     0.0547268  
H46      H      0.481850000000     0.533670000000     0.447810000000     0.0373695  
H47      H      0.615140000000     0.546190000000     0.557600000000     0.030095   
H48      H      0.403300000000     0.487640000000     0.397130000000     0.154905   
H49      H      0.648310000000     0.051020000000     0.174920000000     0.0286     
H50      H      0.865840000000     0.958650000000     0.292610000000     0.0277735  
H51      H      0.715760000000     0.982850000000     0.209340000000     0.0395233  
H52      H      0.796020000000     0.030790000000     0.267480000000     0.03828    
H53      H      0.834810000000     0.989720000000     0.261860000000     0.0598519  
H54      H      0.765030000000     0.061890000000     0.236190000000     0.0399068  
H55      H      0.755600000000     0.945550000000     0.294380000000     0.0832297  
H56      H      0.677530000000     0.020150000000     0.207620000000     0.0543757  
H57      H      0.756480000000     0.072690000000     0.187270000000     0.0544052  
H58      H      0.746300000000     0.952010000000     0.241340000000     0.0375709  
H59      H      0.726300000000     0.103680000000     0.155730000000     0.0300778  
H60      H      0.783130000000     0.891320000000     0.317130000000     0.152816   
H61      H      0.624050000000     0.195670000000     0.191180000000     0.0291273  
H62      H      0.450680000000     0.369750000000     0.278650000000     0.027402   
H63      H      0.554810000000     0.227670000000     0.255690000000     0.0400521  
H64      H      0.482170000000     0.300480000000     0.214470000000     0.0376124  
H65      H      0.483270000000     0.340980000000     0.247570000000     0.0590104  
H66      H      0.513460000000     0.270680000000     0.182530000000     0.039886   
H67      H      0.474830000000     0.264890000000     0.304310000000     0.0837096  
H68      H      0.595460000000     0.228450000000     0.222620000000     0.0544296  
H69      H      0.519240000000     0.220780000000     0.165620000000     0.0549961  
H70      H      0.524890000000     0.258870000000     0.287650000000     0.0375627  
H71      H      0.548910000000     0.189030000000     0.134260000000     0.0308485  
H72      H      0.456130000000     0.296110000000     0.356030000000     0.155965   
H73      H      0.225400000000     0.087060000000     0.633420000000     0.0291098  
H74      H      0.336340000000     0.977180000000     0.830480000000     0.0288467  
H75      H      0.261530000000     0.003990000000     0.680240000000     0.0402929  
H76      H      0.253350000000     0.016520000000     0.785630000000     0.0382323  
H77      H      0.305960000000     0.008780000000     0.799660000000     0.0599372  
H78      H      0.223050000000     0.048190000000     0.754130000000     0.0400529  
H79      H      0.286820000000     0.932130000000     0.746180000000     0.0838912  
H80      H      0.256480000000     0.056220000000     0.664600000000     0.0547815  
H81      H      0.180510000000     0.044060000000     0.721070000000     0.0550664  
H82      H      0.292530000000     0.973020000000     0.711700000000     0.037766   
H83      H      0.150250000000     0.075350000000     0.689610000000     0.0289292  
H84      H      0.336340000000     0.893450000000     0.762830000000     0.155203   
H85      H      0.443590000000     0.867510000000     0.776440000000     0.0294172  
H86      H      0.580010000000     0.654000000000     0.697310000000     0.0273666  
H87      H      0.522940000000     0.813600000000     0.741970000000     0.0400693  
H88      H      0.497470000000     0.705490000000     0.731580000000     0.0374443  
H89      H      0.549540000000     0.684790000000     0.728810000000     0.0595559  
H90      H      0.466880000000     0.737160000000     0.762760000000     0.0401059  
H91      H      0.547180000000     0.754230000000     0.664480000000     0.0829452  
H92      H      0.474350000000     0.836210000000     0.745570000000     0.0547141  
H93      H      0.467600000000     0.764040000000     0.807180000000     0.0546021  
H94      H      0.553100000000     0.781980000000     0.710410000000     0.0398305  
H95      H      0.436080000000     0.795750000000     0.837060000000     0.0300106  
H96      H      0.562860000000     0.718780000000     0.614540000000     0.155946   
H97      H      0.546200000000     0.078770000000     0.086990000000     0.0307541  
H98      H      0.472510000000     0.937620000000     0.883140000000     0.0268285  
H99      H      0.508020000000     0.999700000000     0.036290000000     0.039925   
H100     H      0.509790000000     0.019720000000     0.931700000000     0.037853   
H101     H      0.504590000000     0.967470000000     0.914000000000     0.0593585  
H102     H      0.541890000000     0.049270000000     0.963410000000     0.0399048  
H103     H      0.431190000000     0.977640000000     0.973530000000     0.0831972  
H104     H      0.514060000000     0.049220000000     0.055770000000     0.0547708  
H105     H      0.585690000000     0.045640000000     0.993310000000     0.0541288  
H106     H      0.475650000000     0.970510000000     0.004580000000     0.0374589  
H107     H      0.616840000000     0.075960000000     0.024790000000     0.0294604  
H108     H      0.394080000000     0.927390000000     0.955730000000     0.154444   
H109     H      0.978520000000     0.844560000000     0.330520000000     0.0300629  
H110     H      0.044040000000     0.675740000000     0.143970000000     0.0279731  
H111     H      0.020980000000     0.761930000000     0.289010000000     0.040619   
H112     H      0.002810000000     0.759880000000     0.184130000000     0.0378861  
H113     H      0.012550000000     0.706620000000     0.174380000000     0.0596341  
H114     H      0.971360000000     0.791550000000     0.214530000000     0.039906   
H115     H      0.091080000000     0.734680000000     0.221510000000     0.0830785  
H116     H      0.010660000000     0.814310000000     0.299820000000     0.05501    
H117     H      0.932610000000     0.787680000000     0.250890000000     0.0549518  
H118     H      0.052490000000     0.730370000000     0.258580000000     0.0376586  
H119     H      0.901300000000     0.818640000000     0.281670000000     0.0298914  
H120     H      0.131710000000     0.686110000000     0.206030000000     0.152792   
H121     H      0.173780000000     0.728350000000     0.075400000000     0.0315339  
H122     H      0.366090000000     0.820140000000     0.936160000000     0.0274747  
H123     H      0.206560000000     0.774650000000     0.993920000000     0.040385   
H124     H      0.309480000000     0.741080000000     0.967880000000     0.0377771  
H125     H      0.335950000000     0.788690000000     0.967200000000     0.0595448  
H126     H      0.279280000000     0.710430000000     0.000280000000     0.0400689  
H127     H      0.258210000000     0.806800000000     0.914740000000     0.0837072  
H128     H      0.204000000000     0.759070000000     0.043480000000     0.0554507  
H129     H      0.235050000000     0.678580000000     0.001000000000     0.0549333  
H130     H      0.237230000000     0.805920000000     0.962540000000     0.0380338  
H131     H      0.205020000000     0.648530000000     0.033760000000     0.0294155  
H132     H      0.278460000000     0.861470000000     0.886820000000     0.156318   
H133     H      0.294440000000     0.410480000000     0.315300000000     0.0292895  
H134     H      0.228510000000     0.603050000000     0.150970000000     0.0278337  
H135     H      0.243350000000     0.493830000000     0.283190000000     0.0405843  
H136     H      0.278130000000     0.521540000000     0.185660000000     0.0376332  
H137     H      0.260010000000     0.572000000000     0.181130000000     0.0593937  
H138     H      0.309810000000     0.489810000000     0.215770000000     0.0402387  
H139     H      0.181090000000     0.525440000000     0.211500000000     0.0829683  
H140     H      0.262390000000     0.441050000000     0.284660000000     0.0552025  
H141     H      0.339690000000     0.494150000000     0.260710000000     0.0548975  
H142     H      0.211860000000     0.526050000000     0.253370000000     0.0374542  
H143     H      0.371050000000     0.463110000000     0.291440000000     0.0301054  
H144     H      0.135790000000     0.570130000000     0.197440000000     0.15337    
H145     H      0.900320000000     0.313790000000     0.786180000000     0.0308708  
H146     H      0.119030000000     0.209500000000     0.679790000000     0.0280909  
H147     H      0.964500000000     0.289080000000     0.712490000000     0.0405904  
H148     H      0.055190000000     0.237970000000     0.750950000000     0.0370355  
H149     H      0.089170000000     0.241370000000     0.710710000000     0.0594877  
H150     H      0.024620000000     0.269000000000     0.782680000000     0.0400942  
H151     H      0.008370000000     0.206430000000     0.671920000000     0.0824036  
H152     H      0.930610000000     0.283440000000     0.753860000000     0.0553838  
H153     H      0.011020000000     0.321930000000     0.790580000000     0.0546094  
H154     H      0.995200000000     0.258250000000     0.680630000000     0.039682   
H155     H      0.980030000000     0.351670000000     0.822770000000     0.02902    
H156     H      0.032150000000     0.151970000000     0.646910000000     0.153604   
H157     H      0.659560000000     0.225660000000     0.064130000000     0.0292498  
H158     H      0.857120000000     0.292760000000     0.905510000000     0.028441   
H159     H      0.742240000000     0.278540000000     0.033370000000     0.0403774  
H160     H      0.775520000000     0.241830000000     0.938100000000     0.0381969  
H161     H      0.825840000000     0.261350000000     0.935550000000     0.0599957  
H162     H      0.743320000000     0.210100000000     0.967690000000     0.0403533  
H163     H      0.775070000000     0.339530000000     0.961020000000     0.0833603  
H164     H      0.690300000000     0.257840000000     0.033780000000     0.0549744  
H165     H      0.746330000000     0.181570000000     0.013140000000     0.0550506  
H166     H      0.774830000000     0.310150000000     0.004020000000     0.0377339  
H167     H      0.715050000000     0.150080000000     0.043470000000     0.0311352  
H168     H      0.818750000000     0.385890000000     0.946970000000     0.154807   
H169     H      0.653110000000     0.553500000000     0.678300000000     0.0305256  
H170     H      0.871210000000     0.464010000000     0.796760000000     0.0278822  
H171     H      0.711250000000     0.526090000000     0.755320000000     0.0403755  
H172     H      0.813470000000     0.497540000000     0.722230000000     0.0376278  
H173     H      0.841120000000     0.496770000000     0.766850000000     0.0594307  
H174     H      0.782200000000     0.529770000000     0.692140000000     0.040276   
H175     H      0.762550000000     0.443910000000     0.786840000000     0.0836967  
H176     H      0.684490000000     0.522770000000     0.709210000000     0.0552694  
H177     H      0.759970000000     0.580820000000     0.691020000000     0.0547141  
H178     H      0.742540000000     0.494160000000     0.785560000000     0.0379692  
H179     H      0.727920000000     0.610950000000     0.660000000000     0.0292968  
H180     H      0.783220000000     0.415250000000     0.838970000000     0.161063   
H181     H      0.101820000000     0.541790000000     0.075230000000     0.0331197  
H182     H      0.919920000000     0.476730000000     0.900260000000     0.0282696  
H183     H      0.064170000000     0.496060000000     0.995240000000     0.0402662  
H184     H      0.956950000000     0.523150000000     0.980480000000     0.0377435  
H185     H      0.950620000000     0.508580000000     0.930460000000     0.0594898  
H186     H      0.988510000000     0.554970000000     0.010650000000     0.040252   
H187     H      0.990290000000     0.429720000000     0.968630000000     0.0830722  
H188     H      0.070460000000     0.510140000000     0.045190000000     0.0557951  
H189     H      0.030930000000     0.589680000000     0.007780000000     0.0546841  
H190     H      0.032620000000     0.464270000000     0.965100000000     0.037673   
H191     H      0.062310000000     0.620650000000     0.038590000000     0.0298686  
H192     H      0.976510000000     0.386050000000     0.924410000000     0.156681   
In1      In     0.886770000000     0.384140000000     0.862050000000     2.41657    
In2      In     0.136270000000     0.635530000000     0.111090000000     2.41428    
In3      In     0.383010000000     0.886050000000     0.858450000000     2.40935    
In4      In     0.635730000000     0.132640000000     0.109480000000     2.39902    
In5      In     0.387930000000     0.385110000000     0.359110000000     2.40667    
In6      In     0.635450000000     0.633440000000     0.613050000000     2.40726    
In7      In     0.883850000000     0.882850000000     0.361460000000     2.41078    
In8      In     0.134350000000     0.136630000000     0.607480000000     2.40655    
N1       N      0.080060000000     0.085000000000     0.556940000000    -0.222684   
N2       N      0.934540000000     0.935730000000     0.413920000000    -0.194725   
N3       N      0.834200000000     0.828140000000     0.413490000000    -0.22382    
N4       N      0.690610000000     0.682930000000     0.561730000000    -0.194833   
N5       N      0.332910000000     0.333100000000     0.408580000000    -0.221746   
N6       N      0.186500000000     0.188540000000     0.555170000000    -0.195346   
N7       N      0.437660000000     0.437430000000     0.413320000000    -0.224517   
N8       N      0.582940000000     0.582020000000     0.560720000000    -0.196387   
N9       N      0.828950000000     0.934230000000     0.311180000000    -0.223671   
N10      N      0.685190000000     0.079570000000     0.163100000000    -0.196541   
N11      N      0.444340000000     0.334470000000     0.309520000000    -0.222938   
N12      N      0.588510000000     0.189970000000     0.160550000000    -0.19505    
N13      N      0.329540000000     0.936730000000     0.806150000000    -0.222538   
N14      N      0.185660000000     0.083420000000     0.659310000000    -0.19674    
N15      N      0.581350000000     0.686110000000     0.662920000000    -0.223168   
N16      N      0.437580000000     0.833830000000     0.808870000000    -0.195776   
N17      N      0.433640000000     0.940020000000     0.910420000000    -0.223976   
N18      N      0.583730000000     0.079550000000     0.058080000000    -0.195335   
N19      N      0.085480000000     0.687060000000     0.165080000000    -0.223714   
N20      N      0.937660000000     0.833690000000     0.308310000000    -0.19608    
N21      N      0.329790000000     0.832040000000     0.907930000000    -0.222975   
N22      N      0.187260000000     0.686290000000     0.056850000000    -0.195986   
N23      N      0.186840000000     0.582750000000     0.164020000000    -0.223394   
N24      N      0.334960000000     0.434680000000     0.305600000000    -0.195782   
N25      N      0.081310000000     0.189830000000     0.657930000000    -0.223123   
N26      N      0.938010000000     0.334800000000     0.806790000000    -0.196184   
N27      N      0.834640000000     0.334080000000     0.916050000000    -0.223245   
N28      N      0.685170000000     0.185650000000     0.056020000000    -0.194972   
N29      N      0.834470000000     0.435600000000     0.809500000000    -0.222791   
N30      N      0.688300000000     0.584330000000     0.666920000000    -0.195632   
N31      N      0.937550000000     0.435070000000     0.916470000000    -0.223276   
N32      N      0.084270000000     0.583440000000     0.059070000000    -0.194858   
O1       O      0.872810000000     0.339650000000     0.882700000000    -0.504543   
O2       O      0.849820000000     0.379160000000     0.895670000000    -0.49075    
O3       O      0.921050000000     0.389450000000     0.898160000000    -0.492155   
O4       O      0.931960000000     0.369380000000     0.843280000000    -0.505749   
O5       O      0.841940000000     0.396420000000     0.841470000000    -0.487579   
O6       O      0.892410000000     0.350090000000     0.825640000000    -0.501666   
O7       O      0.902180000000     0.429140000000     0.880520000000    -0.50103    
O8       O      0.880130000000     0.422250000000     0.829760000000    -0.500259   
O9       O      0.091340000000     0.654190000000     0.127040000000    -0.503708   
O10      O      0.130860000000     0.667640000000     0.148950000000    -0.492497   
O11      O      0.141420000000     0.599340000000     0.145350000000    -0.48982    
O12      O      0.120370000000     0.590140000000     0.094080000000    -0.496228   
O13      O      0.153730000000     0.680530000000     0.094280000000    -0.50347    
O14      O      0.100750000000     0.629420000000     0.076090000000    -0.497735   
O15      O      0.181220000000     0.619850000000     0.129620000000    -0.50489    
O16      O      0.169630000000     0.640830000000     0.074060000000    -0.503208   
O17      O      0.360720000000     0.930430000000     0.845490000000    -0.503355   
O18      O      0.351760000000     0.891880000000     0.820120000000    -0.483075   
O19      O      0.389250000000     0.916020000000     0.897750000000    -0.490845   
O20      O      0.375360000000     0.853820000000     0.895870000000    -0.499353   
O21      O      0.413050000000     0.878280000000     0.819410000000    -0.499789   
O22      O      0.337860000000     0.864400000000     0.869700000000    -0.487831   
O23      O      0.426570000000     0.910720000000     0.869960000000    -0.509345   
O24      O      0.407880000000     0.842150000000     0.848740000000    -0.501286   
O25      O      0.627350000000     0.105660000000     0.068460000000    -0.501722   
O26      O      0.592830000000     0.105960000000     0.099840000000    -0.491937   
O27      O      0.679260000000     0.119820000000     0.132400000000    -0.501238   
O28      O      0.674110000000     0.140400000000     0.077900000000    -0.489658   
O29      O      0.594300000000     0.160870000000     0.119900000000    -0.493227   
O30      O      0.645590000000     0.177490000000     0.087240000000    -0.501708   
O31      O      0.641050000000     0.092330000000     0.139800000000    -0.506277   
O32      O      0.630920000000     0.162260000000     0.149250000000    -0.503504   
O33      O      0.417370000000     0.377720000000     0.319560000000    -0.504627   
O34      O      0.414880000000     0.342360000000     0.349860000000    -0.481064   
O35      O      0.395190000000     0.427170000000     0.386230000000    -0.491859   
O36      O      0.380390000000     0.423030000000     0.326890000000    -0.495094   
O37      O      0.358370000000     0.343830000000     0.366380000000    -0.477087   
O38      O      0.342820000000     0.395790000000     0.337600000000    -0.502909   
O39      O      0.429900000000     0.394530000000     0.386170000000    -0.510897   
O40      O      0.362580000000     0.375060000000     0.400560000000    -0.502827   
O41      O      0.626320000000     0.591270000000     0.586500000000    -0.499924   
O42      O      0.592300000000     0.624750000000     0.587500000000    -0.507221   
O43      O      0.609040000000     0.643000000000     0.654110000000    -0.505166   
O44      O      0.643280000000     0.594770000000     0.644290000000    -0.496119   
O45      O      0.662650000000     0.640450000000     0.572040000000    -0.503566   
O46      O      0.680040000000     0.624010000000     0.635890000000    -0.504589   
O47      O      0.607570000000     0.675720000000     0.621120000000    -0.483228   
O48      O      0.663640000000     0.675120000000     0.603400000000    -0.490294   
O49      O      0.917650000000     0.889560000000     0.397770000000    -0.494897   
O50      O      0.900220000000     0.928600000000     0.377330000000    -0.498531   
O51      O      0.891580000000     0.852470000000     0.322610000000    -0.501433   
O52      O      0.864350000000     0.837160000000     0.373880000000    -0.493668   
O53      O      0.875730000000     0.918630000000     0.327190000000    -0.502009   
O54      O      0.854280000000     0.874260000000     0.400720000000    -0.502488   
O55      O      0.929780000000     0.865030000000     0.347090000000    -0.501507   
O56      O      0.837500000000     0.898320000000     0.346290000000    -0.495066   
O57      O      0.141150000000     0.106920000000     0.646930000000    -0.505074   
O58      O      0.178480000000     0.113040000000     0.619170000000    -0.507335   
O59      O      0.099610000000     0.130740000000     0.571970000000    -0.480271   
O60      O      0.088650000000     0.154690000000     0.621880000000    -0.489545   
O61      O      0.161350000000     0.144610000000     0.566420000000    -0.497618   
O62      O      0.127450000000     0.171650000000     0.642740000000    -0.49794    
O63      O      0.115300000000     0.091400000000     0.592990000000    -0.50637    
O64      O      0.159320000000     0.180210000000     0.596640000000    -0.498382   
O65      O      0.060160000000     0.128120000000     0.532350000000    -0.288757   
O66      O      0.841350000000     0.785390000000     0.382730000000    -0.289303   
O67      O      0.328210000000     0.295290000000     0.372070000000    -0.284414   
O68      O      0.399600000000     0.475810000000     0.414800000000    -0.28897    
O69      O      0.784290000000     0.909970000000     0.328760000000    -0.288954   
O70      O      0.440850000000     0.291910000000     0.341050000000    -0.28451    
O71      O      0.318570000000     0.894560000000     0.775660000000    -0.285226   
O72      O      0.579360000000     0.725260000000     0.627470000000    -0.288589   
O73      O      0.393240000000     0.946100000000     0.944170000000    -0.289027   
O74      O      0.128700000000     0.702770000000     0.192170000000    -0.288319   
O75      O      0.285910000000     0.841940000000     0.879360000000    -0.28575    
O76      O      0.143310000000     0.556800000000     0.181960000000    -0.287883   
O77      O      0.035810000000     0.171120000000     0.636560000000    -0.289233   
O78      O      0.806350000000     0.377260000000     0.931320000000    -0.288503   
O79      O      0.790090000000     0.406870000000     0.820390000000    -0.288507   
O80      O      0.960320000000     0.391600000000     0.938070000000    -0.290637   


