data_structure

_audit_creation_method RASPA-1.0
_audit_creation_date 2023-6-5
_audit_author_name 'Poobodin Mano'

_cell_length_a    56.2151
_cell_length_b    56.561
_cell_length_c    30.2391
_cell_angle_alpha 89.7757
_cell_angle_beta  90.2243
_cell_angle_gamma 89.9998
_cell_volume      96146.2

_symmetry_cell_setting          triclinic
_symmetry_space_group_name_Hall 'P 1'
_symmetry_space_group_name_H-M  'P 1'
_symmetry_Int_Tables_number     1

_symmetry_equiv_pos_as_xyz 'x,y,z'

loop_
_atom_site_label
_atom_site_type_symbol
_atom_site_fract_x
_atom_site_fract_y
_atom_site_fract_z
_atom_site_charge
C1       C      0.312840000000     0.364010000000     0.977810000000     0.429407   
C2       C      0.297780000000     0.295740000000     0.902040000000     0.428704   
C3       C      0.367800000000     0.311570000000     0.965500000000     0.415223   
C4       C      0.302710000000     0.297700000000     0.047710000000     0.415588   
C5       C      0.321590000000     0.613600000000     0.999340000000     0.412718   
C6       C      0.305970000000     0.681250000000     0.075300000000     0.415055   
C7       C      0.374410000000     0.664360000000     0.001360000000     0.412198   
C8       C      0.304270000000     0.685980000000     0.939100000000     0.418427   
C9       C      0.619180000000     0.314460000000     0.979940000000     0.414897   
C10      C      0.687650000000     0.298980000000     0.909750000000     0.422821   
C11      C      0.672640000000     0.365640000000     0.987970000000     0.41494    
C12      C      0.688610000000     0.296410000000     0.051630000000     0.413361   
C13      C      0.685640000000     0.614070000000     0.009760000000     0.416931   
C14      C      0.683940000000     0.679420000000     0.914200000000     0.416834   
C15      C      0.625870000000     0.656760000000     0.998730000000     0.424291   
C16      C      0.699180000000     0.686850000000     0.051630000000     0.420532   
C17      C      0.817720000000     0.117760000000     0.496610000000     0.411183   
C18      C      0.802650000000     0.182840000000     0.556180000000     0.410409   
C19      C      0.871630000000     0.171470000000     0.468610000000     0.418879   
C20      C      0.807590000000     0.187110000000     0.411390000000     0.419678   
C21      C      0.867070000000     0.819050000000     0.499220000000     0.424228   
C22      C      0.796730000000     0.797790000000     0.560800000000     0.415025   
C23      C      0.810190000000     0.868280000000     0.502290000000     0.419606   
C24      C      0.801510000000     0.803240000000     0.418620000000     0.416068   
C25      C      0.117940000000     0.805370000000     0.500270000000     0.409789   
C26      C      0.190080000000     0.788010000000     0.438050000000     0.418094   
C27      C      0.165700000000     0.858820000000     0.501560000000     0.418327   
C28      C      0.188220000000     0.790980000000     0.571830000000     0.409473   
C29      C      0.122600000000     0.162090000000     0.461230000000     0.410501   
C30      C      0.192020000000     0.173570000000     0.544520000000     0.412583   
C31      C      0.174220000000     0.108510000000     0.479950000000     0.411579   
C32      C      0.190720000000     0.178710000000     0.402910000000     0.411801   
C33      C      0.164560000000     0.921050000000     0.538110000000    -0.142362   
C34      C      0.179920000000     0.070930000000     0.446850000000     0.0759349  
C35      C      0.171730000000     0.073560000000     0.523540000000     0.0750838  
C36      C      0.180220000000     0.046270000000     0.449440000000    -0.0940857  
C37      C      0.191320000000     0.994660000000     0.469870000000    -0.0370915  
C38      C      0.189930000000     0.969990000000     0.471900000000    -0.0310143  
C39      C      0.174900000000     0.008750000000     0.492830000000    -0.00516772 
C40      C      0.171840000000     0.048940000000     0.527310000000    -0.0941541  
C41      C      0.172080000000     0.958860000000     0.496910000000    -0.0153627  
C42      C      0.173090000000     0.919100000000     0.460510000000    -0.107213   
C43      C      0.155710000000     0.972980000000     0.519900000000    -0.0309541  
C44      C      0.170650000000     0.894590000000     0.462520000000     0.0808983  
C45      C      0.161160000000     0.896420000000     0.539150000000     0.188038   
C46      C      0.157120000000     0.997600000000     0.517940000000    -0.0372234  
C47      C      0.175890000000     0.034960000000     0.489920000000     0.0500997  
C48      C      0.170260000000     0.932640000000     0.498640000000     0.0715103  
C49      C      0.930810000000     0.831810000000     0.483180000000    -0.142551   
C50      C      0.081910000000     0.799840000000     0.460260000000     0.0748174  
C51      C      0.080940000000     0.806020000000     0.537730000000     0.0747979  
C52      C      0.057080000000     0.799030000000     0.458630000000    -0.093967   
C53      C      0.003860000000     0.793340000000     0.530890000000    -0.0371658  
C54      C      0.979090000000     0.795420000000     0.531020000000    -0.0310874  
C55      C      0.017340000000     0.802870000000     0.496020000000    -0.00512437 
C56      C      0.056120000000     0.805500000000     0.537270000000    -0.0943456  
C57      C      0.967140000000     0.806950000000     0.496130000000    -0.0153213  
C58      C      0.925880000000     0.793150000000     0.514910000000    -0.107496   
C59      C      0.980580000000     0.815860000000     0.460640000000    -0.0311092  
C60      C      0.901410000000     0.797060000000     0.516650000000     0.0818797  
C61      C      0.906180000000     0.835710000000     0.486390000000     0.189041   
C62      C      0.005350000000     0.813930000000     0.460660000000    -0.0371496  
C63      C      0.043820000000     0.802170000000     0.497350000000     0.049687   
C64      C      0.940910000000     0.810480000000     0.497500000000     0.0715795  
C65      C      0.791440000000     0.929670000000     0.479090000000    -0.142761   
C66      C      0.829610000000     0.081050000000     0.528210000000     0.0748566  
C67      C      0.797860000000     0.082360000000     0.476380000000     0.07534    
C68      C      0.827790000000     0.056450000000     0.530960000000    -0.0941736  
C69      C      0.811110000000     0.005720000000     0.546070000000    -0.0374322  
C70      C      0.810110000000     0.981020000000     0.546490000000    -0.0311451  
C71      C      0.809420000000     0.018290000000     0.506010000000    -0.00520514 
C72      C      0.795630000000     0.057800000000     0.478140000000    -0.0942574  
C73      C      0.807520000000     0.968330000000     0.506830000000    -0.0156425  
C74      C      0.821570000000     0.929070000000     0.535560000000    -0.108383   
C75      C      0.805780000000     0.980960000000     0.466810000000    -0.0310427  
C76      C      0.821280000000     0.904450000000     0.534490000000     0.081586   
C77      C      0.790850000000     0.904790000000     0.479480000000     0.18821    
C78      C      0.806670000000     0.005640000000     0.466420000000    -0.0373499  
C79      C      0.810850000000     0.044510000000     0.505310000000     0.0499679  
C80      C      0.806910000000     0.942020000000     0.507060000000     0.0715515  
C81      C      0.933970000000     0.191460000000     0.478240000000    -0.142069   
C82      C      0.085350000000     0.148200000000     0.434590000000     0.0744903  
C83      C      0.087100000000     0.182910000000     0.478230000000     0.0752153  
C84      C      0.060570000000     0.149680000000     0.432620000000    -0.0940792  
C85      C      0.008690000000     0.148810000000     0.460230000000    -0.037147   
C86      C      0.983870000000     0.149980000000     0.461060000000    -0.0309645  
C87      C      0.022340000000     0.169380000000     0.454110000000    -0.00509742 
C88      C      0.062350000000     0.184990000000     0.476780000000    -0.0939273  
C89      C      0.972090000000     0.171740000000     0.455680000000    -0.0153299  
C90      C      0.931890000000     0.155570000000     0.436330000000    -0.107493   
C91      C      0.985750000000     0.192300000000     0.449300000000    -0.0310217  
C92      C      0.907180000000     0.156370000000     0.439050000000     0.0807659  
C93      C      0.908950000000     0.192480000000     0.479140000000     0.187367   
C94      C      0.010590000000     0.191140000000     0.448610000000    -0.0374626  
C95      C      0.048740000000     0.168110000000     0.454210000000     0.0497911  
C96      C      0.945650000000     0.172900000000     0.456930000000     0.0712464  
C97      C      0.709650000000     0.688500000000     0.803540000000    -0.143302   
C98      C      0.774000000000     0.798330000000     0.626760000000     0.0748462  
C99      C      0.784550000000     0.761720000000     0.594300000000     0.0753484  
C100     C      0.761930000000     0.786610000000     0.660610000000    -0.0942168  
C101     C      0.726520000000     0.757860000000     0.713420000000    -0.0370978  
C102     C      0.714660000000     0.746160000000     0.747620000000    -0.0315089  
C103     C      0.748190000000     0.749120000000     0.697120000000    -0.00538075 
C104     C      0.772570000000     0.749420000000     0.627600000000    -0.0943178  
C105     C      0.724150000000     0.725370000000     0.766180000000    -0.0156421  
C106     C      0.701950000000     0.725930000000     0.837820000000    -0.107972   
C107     C      0.745690000000     0.716480000000     0.749650000000    -0.0314121  
C108     C      0.691470000000     0.714090000000     0.873220000000     0.079764   
C109     C      0.698120000000     0.676920000000     0.838680000000     0.188261   
C110     C      0.757600000000     0.728240000000     0.715570000000    -0.0371955  
C111     C      0.761030000000     0.761850000000     0.661320000000     0.049898   
C112     C      0.711820000000     0.713120000000     0.803060000000     0.0713291  
C113     C      0.746170000000     0.709830000000     0.125730000000    -0.141975   
C114     C      0.768760000000     0.795270000000     0.371140000000     0.0757443  
C115     C      0.807180000000     0.781100000000     0.352900000000     0.0754095  
C116     C      0.759160000000     0.784700000000     0.333420000000    -0.0947992  
C117     C      0.746880000000     0.771390000000     0.238680000000    -0.0372048  
C118     C      0.736970000000     0.759960000000     0.202110000000    -0.0313905  
C119     C      0.763800000000     0.759890000000     0.265460000000    -0.00549879 
C120     C      0.798150000000     0.770180000000     0.315020000000    -0.0945188  
C121     C      0.743660000000     0.736690000000     0.191570000000    -0.0153724  
C122     C      0.708470000000     0.727130000000     0.143770000000    -0.107559   
C123     C      0.760760000000     0.725270000000     0.218160000000    -0.0313771  
C124     C      0.698250000000     0.715150000000     0.108340000000     0.0803584  
C125     C      0.735690000000     0.698470000000     0.089160000000     0.185848   
C126     C      0.770750000000     0.736760000000     0.254630000000    -0.037278   
C127     C      0.773860000000     0.771820000000     0.304990000000     0.0502069  
C128     C      0.732600000000     0.724280000000     0.153360000000     0.0707232  
C129     C      0.697190000000     0.266460000000     0.805570000000    -0.14231    
C130     C      0.804870000000     0.200580000000     0.627170000000     0.0744283  
C131     C      0.767360000000     0.195050000000     0.592590000000     0.0746862  
C132     C      0.794010000000     0.211420000000     0.663280000000    -0.0939186  
C133     C      0.767440000000     0.247060000000     0.719630000000    -0.0371034  
C134     C      0.756050000000     0.258970000000     0.753960000000    -0.0311949  
C135     C      0.757460000000     0.226460000000     0.701480000000    -0.00522003 
C136     C      0.755910000000     0.205720000000     0.628260000000    -0.0939568  
C137     C      0.734410000000     0.250540000000     0.771090000000    -0.0153263  
C138     C      0.734610000000     0.274230000000     0.841150000000    -0.107535   
C139     C      0.724570000000     0.229780000000     0.753260000000    -0.0312367  
C140     C      0.722600000000     0.286670000000     0.873930000000     0.0813433  
C141     C      0.685460000000     0.279800000000     0.838070000000     0.187943   
C142     C      0.735930000000     0.217900000000     0.718820000000    -0.0373434  
C143     C      0.769260000000     0.214240000000     0.664040000000     0.0496785  
C144     C      0.721910000000     0.263640000000     0.806740000000     0.0712465  
C145     C      0.787550000000     0.232820000000     0.331940000000    -0.141861   
C146     C      0.696770000000     0.261780000000     0.093880000000     0.0752176  
C147     C      0.713620000000     0.298530000000     0.114870000000     0.0752515  
C148     C      0.708070000000     0.250510000000     0.129410000000    -0.0941106  
C149     C      0.745920000000     0.229840000000     0.190660000000    -0.0370523  
C150     C      0.758160000000     0.219210000000     0.225780000000    -0.0312407  
C151     C      0.734880000000     0.251930000000     0.196060000000    -0.00528493 
C152     C      0.725100000000     0.287850000000     0.150740000000    -0.0942404  
C153     C      0.759600000000     0.230390000000     0.267180000000    -0.0152919  
C154     C      0.771810000000     0.194910000000     0.311670000000    -0.107284   
C155     C      0.748370000000     0.252380000000     0.272670000000    -0.0312276  
C156     C      0.784420000000     0.184750000000     0.346630000000     0.0812936  
C157     C      0.800850000000     0.222130000000     0.366110000000     0.186883   
C158     C      0.736160000000     0.263030000000     0.237520000000    -0.0372137  
C159     C      0.722460000000     0.263560000000     0.158360000000     0.0500316  
C160     C      0.772950000000     0.219260000000     0.304350000000     0.07121    
C161     C      0.681130000000     0.552390000000     0.048220000000    -0.142451   
C162     C      0.686620000000     0.401930000000     0.957960000000     0.0754286  
C163     C      0.667430000000     0.401400000000     0.027650000000     0.0761664  
C164     C      0.689690000000     0.426400000000     0.960710000000    -0.094251   
C165     C      0.680160000000     0.479250000000     0.964060000000    -0.0373069  
C166     C      0.682250000000     0.503800000000     0.967330000000    -0.0311866  
C167     C      0.684250000000     0.464720000000     0.001110000000    -0.00515266 
C168     C      0.670250000000     0.425830000000     0.031540000000    -0.094417   
C169     C      0.688510000000     0.514400000000     0.007730000000    -0.0154464  
C170     C      0.700300000000     0.553960000000     0.977460000000    -0.107648   
C171     C      0.692820000000     0.499840000000     0.044700000000    -0.0311526  
C172     C      0.700060000000     0.578560000000     0.979630000000     0.0800942  
C173     C      0.681810000000     0.577220000000     0.050480000000     0.187083   
C174     C      0.690700000000     0.475280000000     0.041430000000    -0.0374588  
C175     C      0.681460000000     0.438660000000     0.997810000000     0.0499897  
C176     C      0.690040000000     0.540570000000     0.011240000000     0.0710526  
C177     C      0.291610000000     0.728030000000     0.848240000000    -0.142546   
C178     C      0.190200000000     0.761350000000     0.627600000000     0.0744896  
C179     C      0.220740000000     0.790130000000     0.622120000000     0.075112   
C180     C      0.201670000000     0.750820000000     0.663690000000    -0.0944618  
C181     C      0.236990000000     0.724760000000     0.722730000000    -0.0371718  
C182     C      0.248470000000     0.714680000000     0.759290000000    -0.0311172  
C183     C      0.235430000000     0.749460000000     0.718170000000    -0.00531769 
C184     C      0.232650000000     0.780100000000     0.658180000000    -0.0944945  
C185     C      0.258630000000     0.729070000000     0.792120000000    -0.0154764  
C186     C      0.260610000000     0.698960000000     0.852940000000    -0.107672   
C187     C      0.257060000000     0.753770000000     0.787530000000    -0.0309964  
C188     C      0.271920000000     0.689240000000     0.889840000000     0.0813207  
C189     C      0.302270000000     0.718580000000     0.886570000000     0.188244   
C190     C      0.245620000000     0.763840000000     0.750970000000    -0.0372397  
C191     C      0.223120000000     0.760220000000     0.679480000000     0.0499844  
C192     C      0.270590000000     0.718380000000     0.831290000000     0.0717711  
C193     C      0.210420000000     0.742420000000     0.359650000000    -0.142175   
C194     C      0.299960000000     0.714680000000     0.121280000000     0.0753363  
C195     C      0.279550000000     0.678850000000     0.136230000000     0.0754617  
C196     C      0.288890000000     0.725550000000     0.157130000000    -0.0945859  
C197     C      0.251720000000     0.747010000000     0.218290000000    -0.037096   
C198     C      0.240210000000     0.757380000000     0.254270000000    -0.0310593  
C199     C      0.260910000000     0.723950000000     0.221550000000    -0.0052821  
C200     C      0.268270000000     0.689120000000     0.172430000000    -0.0944967  
C201     C      0.237720000000     0.744940000000     0.294340000000    -0.0152776  
C202     C      0.229190000000     0.779540000000     0.343440000000    -0.107203   
C203     C      0.247130000000     0.721960000000     0.297640000000    -0.0309808  
C204     C      0.217710000000     0.789400000000     0.379760000000     0.0809451  
C205     C      0.199830000000     0.752370000000     0.397290000000     0.187894   
C206     C      0.258530000000     0.711570000000     0.261650000000    -0.0373127  
C207     C      0.272840000000     0.712760000000     0.183220000000     0.0502305  
C208     C      0.225410000000     0.755860000000     0.332640000000     0.0714394  
C209     C      0.564230000000     0.659150000000     0.040050000000    -0.143043   
C210     C      0.410670000000     0.661940000000     0.961520000000     0.0752731  
C211     C      0.411310000000     0.668640000000     0.038900000000     0.0754545  
C212     C      0.435520000000     0.661750000000     0.960440000000    -0.0944114  
C213     C      0.488240000000     0.674900000000     0.966780000000    -0.0373103  
C214     C      0.513090000000     0.673530000000     0.966980000000    -0.0309671  
C215     C      0.474890000000     0.663370000000     0.999610000000    -0.00532556 
C216     C      0.436140000000     0.668370000000     0.039080000000    -0.0945737  
C217     C      0.525100000000     0.660460000000     0.999860000000    -0.0156258  
C218     C      0.564200000000     0.656250000000     0.960890000000    -0.107793   
C219     C      0.511660000000     0.648780000000     0.032430000000    -0.030864   
C220     C      0.588950000000     0.654650000000     0.961880000000     0.0809203  
C221     C      0.589080000000     0.656380000000     0.040570000000     0.18935    
C222     C      0.486870000000     0.650300000000     0.032400000000    -0.0373989  
C223     C      0.448530000000     0.664710000000     0.999610000000     0.0501543  
C224     C      0.551530000000     0.658900000000     0.000190000000     0.0718407  
C225     C      0.252730000000     0.268370000000     0.828920000000    -0.142539   
C226     C      0.227200000000     0.185480000000     0.582200000000     0.0746265  
C227     C      0.189510000000     0.191410000000     0.615290000000     0.0754732  
C228     C      0.238480000000     0.196280000000     0.618100000000    -0.0939073  
C229     C      0.255580000000     0.233230000000     0.683240000000    -0.037158   
C230     C      0.265830000000     0.245790000000     0.718170000000    -0.031373   
C231     C      0.236490000000     0.217680000000     0.690780000000    -0.00519019 
C232     C      0.200180000000     0.202360000000     0.651600000000    -0.093969   
C233     C      0.257180000000     0.243170000000     0.761460000000    -0.0156371  
C234     C      0.291990000000     0.260600000000     0.801730000000    -0.108095   
C235     C      0.238280000000     0.227450000000     0.769140000000    -0.0313913  
C236     C      0.301320000000     0.274210000000     0.835970000000     0.0798105  
C237     C      0.262380000000     0.282930000000     0.862120000000     0.186536   
C238     C      0.228090000000     0.214800000000     0.734240000000    -0.0372518  
C239     C      0.224950000000     0.205100000000     0.653240000000     0.04973    
C240     C      0.267480000000     0.257260000000     0.798230000000     0.0711311  
C241     C      0.266520000000     0.287710000000     0.147640000000    -0.142372   
C242     C      0.218670000000     0.179140000000     0.344210000000     0.0752974  
C243     C      0.194850000000     0.212930000000     0.357760000000     0.0744846  
C244     C      0.229860000000     0.190670000000     0.309060000000    -0.0942181  
C245     C      0.239760000000     0.215370000000     0.221030000000    -0.0373174  
C246     C      0.251130000000     0.227370000000     0.186570000000    -0.0310257  
C247     C      0.235620000000     0.226640000000     0.261610000000    -0.00523495 
C248     C      0.205820000000     0.225060000000     0.323060000000    -0.0942494  
C249     C      0.258760000000     0.250880000000     0.192000000000    -0.0153544  
C250     C      0.287410000000     0.252210000000     0.128540000000    -0.107075   
C251     C      0.254720000000     0.262060000000     0.232790000000    -0.0309825  
C252     C      0.298440000000     0.264420000000     0.094120000000     0.0805409  
C253     C      0.278660000000     0.300010000000     0.114120000000     0.187835   
C254     C      0.243200000000     0.250120000000     0.267090000000    -0.0374878  
C255     C      0.223570000000     0.213940000000     0.298260000000     0.0499223  
C256     C      0.270880000000     0.263690000000     0.155330000000     0.0711151  
C257     C      0.430450000000     0.320260000000     0.933370000000    -0.142793   
C258     C      0.582880000000     0.300580000000     0.010790000000     0.075154   
C259     C      0.582420000000     0.323550000000     0.945020000000     0.0757128  
C260     C      0.558070000000     0.298930000000     0.009910000000    -0.0939728  
C261     C      0.505120000000     0.310710000000     0.012760000000    -0.0370257  
C262     C      0.480260000000     0.310290000000     0.010740000000    -0.0310722  
C263     C      0.518720000000     0.308410000000     0.974060000000    -0.00530304 
C264     C      0.557650000000     0.322240000000     0.943090000000    -0.0947474  
C265     C      0.468460000000     0.307600000000     0.970000000000    -0.0154628  
C266     C      0.428260000000     0.295800000000     0.998300000000    -0.107318   
C267     C      0.482070000000     0.304850000000     0.931470000000    -0.0311927  
C268     C      0.403500000000     0.296530000000     0.995390000000     0.0800801  
C269     C      0.405500000000     0.320100000000     0.930050000000     0.188546   
C270     C      0.506890000000     0.305250000000     0.933480000000    -0.0373082  
C271     C      0.545130000000     0.309810000000     0.975740000000     0.0499737  
C272     C      0.442050000000     0.308020000000     0.967460000000     0.0713514  
C273     C      0.297490000000     0.426140000000     0.951890000000    -0.142766   
C274     C      0.328560000000     0.575600000000     0.030290000000     0.0755367  
C275     C      0.308480000000     0.579180000000     0.961500000000     0.0748844  
C276     C      0.326900000000     0.551010000000     0.028390000000    -0.0941259  
C277     C      0.309850000000     0.500420000000     0.028370000000    -0.0371681  
C278     C      0.308840000000     0.475780000000     0.026420000000    -0.0313393  
C279     C      0.313810000000     0.513920000000     0.989900000000    -0.00526593 
C280     C      0.306340000000     0.554600000000     0.958680000000    -0.0938368  
C281     C      0.311550000000     0.464020000000     0.985930000000    -0.0159306  
C282     C      0.323120000000     0.424300000000     0.015470000000    -0.10867    
C283     C      0.315090000000     0.477440000000     0.947330000000    -0.0312938  
C284     C      0.322560000000     0.399730000000     0.013190000000     0.0817852  
C285     C      0.296170000000     0.401280000000     0.951420000000     0.187087   
C286     C      0.316310000000     0.502110000000     0.949300000000    -0.0372297  
C287     C      0.315650000000     0.540150000000     0.992340000000     0.0497348  
C288     C      0.310880000000     0.437810000000     0.984130000000     0.0716876  
H1       H      0.168340000000     0.083770000000     0.553150000000     0.0281473  
H2       H      0.173650000000     0.884880000000     0.432180000000     0.0276842  
H3       H      0.143930000000     0.007920000000     0.535340000000     0.0386574  
H4       H      0.202970000000     0.959620000000     0.454210000000     0.0371757  
H5       H      0.177030000000     0.927400000000     0.429030000000     0.0568971  
H6       H      0.205390000000     0.002710000000     0.450630000000     0.0388745  
H7       H      0.161830000000     0.931250000000     0.567940000000     0.0661828  
H8       H      0.168770000000     0.040930000000     0.559380000000     0.0535592  
H9       H      0.183210000000     0.036160000000     0.419640000000     0.0540235  
H10      H      0.141440000000     0.965010000000     0.538760000000     0.0361963  
H11      H      0.183000000000     0.079010000000     0.414800000000     0.0304757  
H12      H      0.149190000000     0.897250000000     0.604840000000     0.0894679  
H13      H      0.144160000000     0.870140000000     0.578390000000     0.110155   
H14      H      0.089740000000     0.808970000000     0.569210000000     0.028051   
H15      H      0.890470000000     0.782710000000     0.529070000000     0.0268176  
H16      H      0.015120000000     0.821690000000     0.433450000000     0.0383901  
H17      H      0.969380000000     0.788530000000     0.559120000000     0.0365796  
H18      H      0.932860000000     0.776350000000     0.526320000000     0.0568127  
H19      H      0.012440000000     0.784380000000     0.558350000000     0.0384276  
H20      H      0.942230000000     0.846030000000     0.471880000000     0.0661545  
H21      H      0.046690000000     0.808340000000     0.567940000000     0.0531775  
H22      H      0.048390000000     0.796000000000     0.427140000000     0.0536383  
H23      H      0.971970000000     0.824530000000     0.432880000000     0.0370034  
H24      H      0.091540000000     0.797600000000     0.429550000000     0.0293625  
H25      H      0.909450000000     0.871190000000     0.466540000000     0.0893543  
H26      H      0.881220000000     0.863940000000     0.487420000000     0.109382   
H27      H      0.785880000000     0.091990000000     0.454640000000     0.0302753  
H28      H      0.833740000000     0.895340000000     0.556090000000     0.0256337  
H29      H      0.805690000000     0.014800000000     0.434940000000     0.0390169  
H30      H      0.811100000000     0.971900000000     0.578000000000     0.0366444  
H31      H      0.833870000000     0.937850000000     0.557710000000     0.0563094  
H32      H      0.812940000000     0.014990000000     0.577170000000     0.0386569  
H33      H      0.779000000000     0.939360000000     0.458410000000     0.0661432  
H34      H      0.782050000000     0.049280000000     0.458300000000     0.0538408  
H35      H      0.840010000000     0.046830000000     0.552170000000     0.0535958  
H36      H      0.804170000000     0.971750000000     0.435590000000     0.0369026  
H37      H      0.843200000000     0.089650000000     0.547970000000     0.0280316  
H38      H      0.761520000000     0.903740000000     0.436300000000     0.0896855  
H39      H      0.768410000000     0.876290000000     0.460660000000     0.112279   
H40      H      0.096990000000     0.196110000000     0.496610000000     0.0301168  
H41      H      0.897450000000     0.141950000000     0.423840000000     0.0274249  
H42      H      0.020600000000     0.207250000000     0.443250000000     0.0384848  
H43      H      0.973920000000     0.133860000000     0.466730000000     0.0371586  
H44      H      0.940160000000     0.141230000000     0.418380000000     0.0567288  
H45      H      0.017200000000     0.131830000000     0.465280000000     0.0389314  
H46      H      0.944250000000     0.205470000000     0.493450000000     0.0659429  
H47      H      0.053920000000     0.199410000000     0.494220000000     0.0537174  
H48      H      0.050760000000     0.136460000000     0.414240000000     0.053612   
H49      H      0.977250000000     0.209290000000     0.444280000000     0.0358251  
H50      H      0.093840000000     0.133570000000     0.417770000000     0.0284135  
H51      H      0.909100000000     0.226140000000     0.508200000000     0.0891016  
H52      H      0.880970000000     0.217120000000     0.489100000000     0.109047   
H53      H      0.793170000000     0.751490000000     0.568680000000     0.0281342  
H54      H      0.685150000000     0.724850000000     0.900370000000     0.0266022  
H55      H      0.774420000000     0.721210000000     0.704300000000     0.0384909  
H56      H      0.697920000000     0.753240000000     0.759200000000     0.0367677  
H57      H      0.703120000000     0.745040000000     0.838610000000     0.0566312  
H58      H      0.718550000000     0.773660000000     0.699450000000     0.0383132  
H59      H      0.715990000000     0.678350000000     0.775610000000     0.0662256  
H60      H      0.772100000000     0.730290000000     0.626510000000     0.0532476  
H61      H      0.753610000000     0.796950000000     0.686360000000     0.0534442  
H62      H      0.753600000000     0.700670000000     0.763680000000     0.0371102  
H63      H      0.774290000000     0.817490000000     0.627420000000     0.0287552  
H64      H      0.699640000000     0.644020000000     0.806870000000     0.0895346  
H65      H      0.681310000000     0.644290000000     0.853920000000     0.111896   
H66      H      0.826070000000     0.779370000000     0.359630000000     0.0285115  
H67      H      0.679240000000     0.717380000000     0.103510000000     0.0285284  
H68      H      0.783520000000     0.727310000000     0.274960000000     0.0385626  
H69      H      0.724200000000     0.769460000000     0.181870000000     0.0367208  
H70      H      0.697230000000     0.738060000000     0.164320000000     0.0565162  
H71      H      0.741440000000     0.789350000000     0.245760000000     0.0386007  
H72      H      0.765180000000     0.708320000000     0.131230000000     0.0655845  
H73      H      0.810180000000     0.760640000000     0.293620000000     0.0536816  
H74      H      0.740240000000     0.786210000000     0.327120000000     0.0534473  
H75      H      0.766080000000     0.707250000000     0.211360000000     0.0365933  
H76      H      0.756770000000     0.804870000000     0.392590000000     0.0274631  
H77      H      0.768680000000     0.686120000000     0.066490000000     0.0888022  
H78      H      0.745330000000     0.682480000000     0.028300000000     0.107749   
H79      H      0.756440000000     0.188940000000     0.565290000000     0.028304   
H80      H      0.733280000000     0.293810000000     0.900680000000     0.0263815  
H81      H      0.727960000000     0.201890000000     0.706000000000     0.0385974  
H82      H      0.763940000000     0.275120000000     0.766360000000     0.0368136  
H83      H      0.753760000000     0.272480000000     0.843470000000     0.0566591  
H84      H      0.783820000000     0.254320000000     0.706570000000     0.0386845  
H85      H      0.687120000000     0.259460000000     0.777920000000     0.0660203  
H86      H      0.736750000000     0.207740000000     0.627270000000     0.053448   
H87      H      0.804980000000     0.217460000000     0.690520000000     0.0536169  
H88      H      0.708120000000     0.222600000000     0.766120000000     0.0369746  
H89      H      0.824080000000     0.198820000000     0.627730000000     0.0298638  
H90      H      0.652730000000     0.277510000000     0.804610000000     0.0894707  
H91      H      0.652850000000     0.298040000000     0.848060000000     0.111953   
H92      H      0.716230000000     0.317350000000     0.110000000000     0.0292321  
H93      H      0.782170000000     0.165890000000     0.351680000000     0.0295483  
H94      H      0.727540000000     0.279890000000     0.242950000000     0.0386635  
H95      H      0.766920000000     0.202440000000     0.220210000000     0.036938   
H96      H      0.760710000000     0.183730000000     0.291190000000     0.0571268  
H97      H      0.745570000000     0.220990000000     0.158960000000     0.0386898  
H98      H      0.789640000000     0.251570000000     0.325390000000     0.0656505  
H99      H      0.736310000000     0.298560000000     0.171930000000     0.0534492  
H100     H      0.705350000000     0.231730000000     0.134380000000     0.0537995  
H101     H      0.748820000000     0.261290000000     0.304310000000     0.0370359  
H102     H      0.685750000000     0.251130000000     0.072220000000     0.0286242  
H103     H      0.818740000000     0.253760000000     0.380660000000     0.0882227  
H104     H      0.831050000000     0.228760000000     0.406750000000     0.106215   
H105     H      0.658570000000     0.392130000000     0.054370000000     0.0288928  
H106     H      0.707260000000     0.588080000000     0.951500000000     0.0286173  
H107     H      0.694320000000     0.464550000000     0.070420000000     0.038523   
H108     H      0.678440000000     0.514510000000     0.938390000000     0.0367013  
H109     H      0.708120000000     0.545510000000     0.948890000000     0.0564248  
H110     H      0.674830000000     0.471700000000     0.932690000000     0.0385463  
H111     H      0.673810000000     0.542360000000     0.075580000000     0.0656527  
H112     H      0.663340000000     0.434640000000     0.060520000000     0.0535362  
H113     H      0.698690000000     0.435580000000     0.934100000000     0.053555   
H114     H      0.698050000000     0.507410000000     0.076110000000     0.0359469  
H115     H      0.693280000000     0.393060000000     0.928790000000     0.02869    
H116     H      0.669550000000     0.577460000000     0.115990000000     0.0880827  
H117     H      0.679770000000     0.605130000000     0.097010000000     0.107907   
H118     H      0.228700000000     0.805480000000     0.606470000000     0.0294621  
H119     H      0.263740000000     0.673730000000     0.904560000000     0.0285645  
H120     H      0.244390000000     0.782920000000     0.748790000000     0.038768   
H121     H      0.249630000000     0.695600000000     0.761570000000     0.0369881  
H122     H      0.244060000000     0.691260000000     0.841540000000     0.0570291  
H123     H      0.229600000000     0.713200000000     0.697720000000     0.0383208  
H124     H      0.299380000000     0.743450000000     0.832520000000     0.0661951  
H125     H      0.249340000000     0.787740000000     0.668970000000     0.0537871  
H126     H      0.193550000000     0.735640000000     0.679510000000     0.0534643  
H127     H      0.264300000000     0.765360000000     0.812630000000     0.0362842  
H128     H      0.173570000000     0.753650000000     0.616470000000     0.0283851  
H129     H      0.327430000000     0.745980000000     0.889470000000     0.0894466  
H130     H      0.326550000000     0.728380000000     0.937410000000     0.11034    
H131     H      0.275450000000     0.660550000000     0.128790000000     0.0287888  
H132     H      0.220760000000     0.808050000000     0.385870000000     0.0279312  
H133     H      0.265770000000     0.693930000000     0.265440000000     0.0387098  
H134     H      0.232930000000     0.775000000000     0.250440000000     0.0370608  
H135     H      0.241040000000     0.790500000000     0.324010000000     0.0568384  
H136     H      0.253030000000     0.756900000000     0.187650000000     0.0386918  
H137     H      0.207570000000     0.723870000000     0.352410000000     0.0660385  
H138     H      0.255780000000     0.678680000000     0.191450000000     0.05378    
H139     H      0.293120000000     0.743790000000     0.164640000000     0.0535935  
H140     H      0.245990000000     0.712050000000     0.328280000000     0.036141   
H141     H      0.312320000000     0.725130000000     0.101910000000     0.0275443  
H142     H      0.186540000000     0.719500000000     0.418240000000     0.0892782  
H143     H      0.184550000000     0.741700000000     0.458450000000     0.109303   
H144     H      0.402350000000     0.671370000000     0.070160000000     0.0290643  
H145     H      0.597930000000     0.653390000000     0.930290000000     0.0254737  
H146     H      0.477040000000     0.640870000000     0.057670000000     0.0387316  
H147     H      0.522890000000     0.682970000000     0.941710000000     0.0367769  
H148     H      0.555080000000     0.655390000000     0.929320000000     0.0564296  
H149     H      0.479490000000     0.685290000000     0.941320000000     0.038873   
H150     H      0.554770000000     0.660700000000     0.071070000000     0.0661377  
H151     H      0.445560000000     0.671050000000     0.069970000000     0.0538497  
H152     H      0.444440000000     0.658720000000     0.929290000000     0.0538564  
H153     H      0.520240000000     0.638120000000     0.057670000000     0.035984   
H154     H      0.401190000000     0.659230000000     0.930650000000     0.0291322  
H155     H      0.590100000000     0.654030000000     0.109890000000     0.0890674  
H156     H      0.616890000000     0.645960000000     0.084370000000     0.112885   
H157     H      0.170280000000     0.189910000000     0.615050000000     0.0301404  
H158     H      0.320540000000     0.275520000000     0.837920000000     0.0250227  
H159     H      0.213670000000     0.202690000000     0.741380000000     0.0384678  
H160     H      0.280140000000     0.258030000000     0.711050000000     0.0366214  
H161     H      0.304050000000     0.252310000000     0.778630000000     0.0563461  
H162     H      0.262250000000     0.236210000000     0.650140000000     0.0383961  
H163     H      0.233580000000     0.266930000000     0.825390000000     0.0658247  
H164     H      0.188970000000     0.209150000000     0.677670000000     0.0534915  
H165     H      0.257690000000     0.197650000000     0.618260000000     0.0533541  
H166     H      0.231430000000     0.224820000000     0.802240000000     0.0369594  
H167     H      0.238250000000     0.179070000000     0.555490000000     0.0279754  
H168     H      0.228550000000     0.294090000000     0.882540000000     0.0883756  
H169     H      0.251960000000     0.310700000000     0.905170000000     0.109091   
H170     H      0.181170000000     0.222110000000     0.376160000000     0.0278742  
H171     H      0.310490000000     0.254420000000     0.073420000000     0.0279339  
H172     H      0.240590000000     0.259140000000     0.298230000000     0.038604   
H173     H      0.253630000000     0.218330000000     0.155440000000     0.0368206  
H174     H      0.291830000000     0.233780000000     0.133960000000     0.0566373  
H175     H      0.233880000000     0.197370000000     0.215690000000     0.038997   
H176     H      0.254160000000     0.297170000000     0.168560000000     0.0656606  
H177     H      0.200270000000     0.242970000000     0.315470000000     0.0534602  
H178     H      0.243650000000     0.181530000000     0.290950000000     0.0540636  
H179     H      0.260790000000     0.279960000000     0.238540000000     0.0358815  
H180     H      0.224170000000     0.161190000000     0.351790000000     0.030125   
H181     H      0.264790000000     0.332680000000     0.134410000000     0.0889143  
H182     H      0.288050000000     0.335150000000     0.096070000000     0.112972   
H183     H      0.591400000000     0.333410000000     0.919190000000     0.0274067  
H184     H      0.393620000000     0.287340000000     0.020980000000     0.0281463  
H185     H      0.516820000000     0.302950000000     0.903180000000     0.0382686  
H186     H      0.470270000000     0.312660000000     0.040960000000     0.0369439  
H187     H      0.436550000000     0.285710000000     0.024690000000     0.0569243  
H188     H      0.513670000000     0.313440000000     0.044490000000     0.0386845  
H189     H      0.440820000000     0.329430000000     0.908490000000     0.0661444  
H190     H      0.548380000000     0.331220000000     0.916450000000     0.053241   
H191     H      0.549130000000     0.288940000000     0.035570000000     0.0536902  
H192     H      0.473540000000     0.302240000000     0.899680000000     0.0362393  
H193     H      0.592290000000     0.291880000000     0.037670000000     0.0288877  
H194     H      0.406040000000     0.337670000000     0.868750000000     0.0893941  
H195     H      0.378060000000     0.326050000000     0.882730000000     0.112219   
H196     H      0.301050000000     0.589750000000     0.934840000000     0.0287248  
H197     H      0.333160000000     0.390170000000     0.037410000000     0.0260715  
H198     H      0.319710000000     0.511860000000     0.919110000000     0.0383026  
H199     H      0.305690000000     0.465910000000     0.056620000000     0.0364801  
H200     H      0.333670000000     0.432670000000     0.041050000000     0.0568113  
H201     H      0.307340000000     0.508900000000     0.060060000000     0.0383151  
H202     H      0.286960000000     0.436410000000     0.928620000000     0.0659147  
H203     H      0.297200000000     0.547060000000     0.930490000000     0.053141   
H204     H      0.334750000000     0.540610000000     0.054810000000     0.0533211  
H205     H      0.317450000000     0.468820000000     0.915720000000     0.037206   
H206     H      0.337470000000     0.583270000000     0.058700000000     0.0287536  
H207     H      0.270100000000     0.401520000000     0.901520000000     0.0880519  
H208     H      0.274010000000     0.373790000000     0.926810000000     0.108261   
In1      In     0.319980000000     0.316710000000     0.971970000000     2.40322    
In2      In     0.326480000000     0.661140000000     0.003860000000     2.41661    
In3      In     0.667150000000     0.318260000000     0.982380000000     2.41052    
In4      In     0.673910000000     0.659840000000     0.994030000000     2.41021    
In5      In     0.824620000000     0.164680000000     0.484330000000     2.41172    
In6      In     0.819000000000     0.821430000000     0.494730000000     2.41257    
In7      In     0.165700000000     0.810920000000     0.501980000000     2.41951    
In8      In     0.170100000000     0.155970000000     0.471860000000     2.4024     
N1       N      0.165490000000     0.883130000000     0.501510000000    -0.214239   
N2       N      0.175450000000     0.084410000000     0.483520000000    -0.195135   
N3       N      0.151750000000     0.886890000000     0.576700000000    -0.218866   
N4       N      0.891440000000     0.817680000000     0.501100000000    -0.21531    
N5       N      0.093680000000     0.803570000000     0.499440000000    -0.195728   
N6       N      0.898030000000     0.858020000000     0.478310000000    -0.219124   
N7       N      0.806910000000     0.892300000000     0.505530000000    -0.214255   
N8       N      0.814940000000     0.093820000000     0.500730000000    -0.19566    
N9       N      0.773100000000     0.893950000000     0.456380000000    -0.219365   
N10      N      0.895700000000     0.173960000000     0.461890000000    -0.2146     
N11      N      0.098440000000     0.164510000000     0.457710000000    -0.195465   
N12      N      0.898720000000     0.212690000000     0.494440000000    -0.218682   
N13      N      0.690620000000     0.689810000000     0.875000000000    -0.214835   
N14      N      0.785170000000     0.785960000000     0.593900000000    -0.196665   
N15      N      0.693320000000     0.653440000000     0.834090000000    -0.218619   
N16      N      0.711330000000     0.700200000000     0.082190000000    -0.215332   
N17      N      0.792540000000     0.793340000000     0.380860000000    -0.19653    
N18      N      0.750460000000     0.687580000000     0.059960000000    -0.219006   
N19      N      0.698240000000     0.288810000000     0.873580000000    -0.215089   
N20      N      0.791640000000     0.192680000000     0.591970000000    -0.195566   
N21      N      0.662040000000     0.284930000000     0.831150000000    -0.219344   
N22      N      0.798120000000     0.198160000000     0.374760000000    -0.214269   
N23      N      0.699610000000     0.285570000000     0.086700000000    -0.195951   
N24      N      0.817410000000     0.235650000000     0.387200000000    -0.218765   
N25      N      0.689650000000     0.590210000000     0.014370000000    -0.214339   
N26      N      0.675550000000     0.389590000000     0.991150000000    -0.195774   
N27      N      0.675940000000     0.587570000000     0.089570000000    -0.218711   
N28      N      0.292970000000     0.698270000000     0.905790000000    -0.214045   
N29      N      0.199680000000     0.780850000000     0.607090000000    -0.195691   
N30      N      0.320450000000     0.731040000000     0.905240000000    -0.21877    
N31      N      0.202540000000     0.776340000000     0.405740000000    -0.214123   
N32      N      0.295250000000     0.691550000000     0.110910000000    -0.196539   
N33      N      0.188790000000     0.737360000000     0.426010000000    -0.218654   
N34      N      0.601480000000     0.655570000000     0.000980000000    -0.215245   
N35      N      0.398720000000     0.665130000000     0.000520000000    -0.195648   
N36      N      0.599790000000     0.652750000000     0.080550000000    -0.219008   
N37      N      0.286900000000     0.284720000000     0.866870000000    -0.21707    
N38      N      0.202900000000     0.183310000000     0.580680000000    -0.19569    
N39      N      0.246930000000     0.296230000000     0.886160000000    -0.219213   
N40      N      0.293530000000     0.287820000000     0.085610000000    -0.213428   
N41      N      0.201350000000     0.190220000000     0.368340000000    -0.195865   
N42      N      0.276570000000     0.324030000000     0.113260000000    -0.219457   
N43      N      0.392090000000     0.309260000000     0.962800000000    -0.213678   
N44      N      0.594900000000     0.312820000000     0.978610000000    -0.196133   
N45      N      0.395560000000     0.329170000000     0.892460000000    -0.219236   
N46      N      0.310010000000     0.388130000000     0.980690000000    -0.215638   
N47      N      0.319490000000     0.589530000000     0.997050000000    -0.195858   
N48      N      0.279810000000     0.391200000000     0.923970000000    -0.219019   
O1       O      0.294870000000     0.316560000000     0.030760000000    -0.507483   
O2       O      0.318790000000     0.287830000000     0.025160000000    -0.491002   
O3       O      0.319740000000     0.300170000000     0.902950000000    -0.516978   
O4       O      0.306570000000     0.352020000000     0.944660000000    -0.514959   
O5       O      0.355100000000     0.298390000000     0.989650000000    -0.490612   
O6       O      0.323450000000     0.352070000000     0.007290000000    -0.50903    
O7       O      0.287240000000     0.301110000000     0.937220000000    -0.515793   
O8       O      0.356360000000     0.327830000000     0.946290000000    -0.506908   
O9       O      0.294050000000     0.669980000000     0.961310000000    -0.504552   
O10      O      0.325980000000     0.688600000000     0.948520000000    -0.505765   
O11      O      0.301760000000     0.660250000000     0.063630000000    -0.505357   
O12      O      0.330990000000     0.623940000000     0.031930000000    -0.505461   
O13      O      0.361960000000     0.660090000000     0.967430000000    -0.501024   
O14      O      0.314460000000     0.627290000000     0.968960000000    -0.499237   
O15      O      0.320720000000     0.692030000000     0.051140000000    -0.506847   
O16      O      0.362590000000     0.667270000000     0.036380000000    -0.503208   
O17      O      0.675390000000     0.285510000000     0.024660000000    -0.500129   
O18      O      0.690910000000     0.318180000000     0.043540000000    -0.505173   
O19      O      0.666050000000     0.296130000000     0.919360000000    -0.510876   
O20      O      0.630950000000     0.325630000000     0.951160000000    -0.507901   
O21      O      0.662510000000     0.353520000000     0.017580000000    -0.501588   
O22      O      0.631670000000     0.305050000000     0.010080000000    -0.499541   
O23      O      0.699140000000     0.310890000000     0.937910000000    -0.504597   
O24      O      0.679940000000     0.353830000000     0.955330000000    -0.500436   
O25      O      0.707440000000     0.668360000000     0.034350000000    -0.516999   
O26      O      0.677930000000     0.691160000000     0.040730000000    -0.502667   
O27      O      0.688460000000     0.658190000000     0.923830000000    -0.499203   
O28      O      0.694530000000     0.626150000000     0.978700000000    -0.493599   
O29      O      0.638770000000     0.663550000000     0.030410000000    -0.504353   
O30      O      0.670800000000     0.625280000000     0.032830000000    -0.513422   
O31      O      0.674660000000     0.690920000000     0.945440000000    -0.509335   
O32      O      0.637290000000     0.652420000000     0.963740000000    -0.513197   
O33      O      0.814840000000     0.198010000000     0.445170000000    -0.513769   
O34      O      0.808270000000     0.164880000000     0.415300000000    -0.49835    
O35      O      0.791410000000     0.175890000000     0.522400000000    -0.507138   
O36      O      0.833780000000     0.129130000000     0.516660000000    -0.506413   
O37      O      0.859240000000     0.156320000000     0.448370000000    -0.510911   
O38      O      0.804940000000     0.130170000000     0.471160000000    -0.496411   
O39      O      0.824930000000     0.180410000000     0.553820000000    -0.497031   
O40      O      0.860310000000     0.182670000000     0.497720000000    -0.501195   
O41      O      0.823240000000     0.802020000000     0.429130000000    -0.506804   
O42      O      0.788670000000     0.813920000000     0.446290000000    -0.504294   
O43      O      0.797320000000     0.820040000000     0.558390000000    -0.505187   
O44      O      0.853670000000     0.805480000000     0.521180000000    -0.506527   
O45      O      0.803530000000     0.856300000000     0.469330000000    -0.503432   
O46      O      0.856090000000     0.832960000000     0.473670000000    -0.510775   
O47      O      0.807540000000     0.787390000000     0.529980000000    -0.503377   
O48      O      0.821820000000     0.856570000000     0.530760000000    -0.503559   
O49      O      0.168720000000     0.783240000000     0.556820000000    -0.502431   
O50      O      0.196260000000     0.808840000000     0.551630000000    -0.502394   
O51      O      0.171670000000     0.779720000000     0.456050000000    -0.510289   
O52      O      0.130500000000     0.804620000000     0.465740000000    -0.500153   
O53      O      0.167590000000     0.846580000000     0.536300000000    -0.509166   
O54      O      0.129560000000     0.808590000000     0.535570000000    -0.504681   
O55      O      0.195450000000     0.808600000000     0.450820000000    -0.504421   
O56      O      0.165130000000     0.846750000000     0.466450000000    -0.504079   
O57      O      0.174280000000     0.187800000000     0.425530000000    -0.50792    
O58      O      0.196680000000     0.158180000000     0.415050000000    -0.494666   
O59      O      0.169730000000     0.171300000000     0.541510000000    -0.494791   
O60      O      0.135380000000     0.176040000000     0.483520000000    -0.490686   
O61      O      0.176820000000     0.119270000000     0.443610000000    -0.491464   
O62      O      0.133860000000     0.145300000000     0.443610000000    -0.505824   
O63      O      0.203350000000     0.166620000000     0.511000000000    -0.506806   
O64      O      0.169740000000     0.121760000000     0.512420000000    -0.505684   


