data_structure

_audit_creation_method RASPA-1.0
_audit_creation_date 2023-6-5
_audit_author_name 'Poobodin Mano'

_cell_length_a    55.9802
_cell_length_b    56.0093
_cell_length_c    30.8885
_cell_angle_alpha 89.7782
_cell_angle_beta  90.2218
_cell_angle_gamma 89.9997
_cell_volume      96846.7

_symmetry_cell_setting          triclinic
_symmetry_space_group_name_Hall 'P 1'
_symmetry_space_group_name_H-M  'P 1'
_symmetry_Int_Tables_number     1

_symmetry_equiv_pos_as_xyz 'x,y,z'

loop_
_atom_site_label
_atom_site_type_symbol
_atom_site_fract_x
_atom_site_fract_y
_atom_site_fract_z
_atom_site_charge
C1       C      0.330250000000     0.372760000000     0.994290000000     0.419039   
C2       C      0.315300000000     0.302890000000     0.920650000000     0.4195     
C3       C      0.381330000000     0.314990000000     0.989740000000     0.414217   
C4       C      0.311520000000     0.306230000000     0.061990000000     0.411189   
C5       C      0.322120000000     0.624700000000     0.984530000000     0.414954   
C6       C      0.304560000000     0.693590000000     0.056650000000     0.412886   
C7       C      0.374240000000     0.679440000000     0.998340000000     0.413743   
C8       C      0.307070000000     0.691180000000     0.914510000000     0.419068   
C9       C      0.633060000000     0.326780000000     0.985040000000     0.411591   
C10      C      0.703720000000     0.314650000000     0.912660000000     0.419633   
C11      C      0.685720000000     0.381850000000     0.976730000000     0.418219   
C12      C      0.700070000000     0.313370000000     0.053250000000     0.413239   
C13      C      0.678680000000     0.634300000000     0.980600000000     0.412925   
C14      C      0.697490000000     0.704290000000     0.915590000000     0.416656   
C15      C      0.626580000000     0.686250000000     0.984720000000     0.412442   
C16      C      0.697160000000     0.703360000000     0.050130000000     0.410471   
C17      C      0.825840000000     0.133500000000     0.476940000000     0.414694   
C18      C      0.812270000000     0.202770000000     0.553050000000     0.417686   
C19      C      0.879990000000     0.187260000000     0.490560000000     0.417345   
C20      C      0.812270000000     0.202120000000     0.412360000000     0.415044   
C21      C      0.876760000000     0.829550000000     0.480130000000     0.414934   
C22      C      0.806280000000     0.811740000000     0.550150000000     0.4134     
C23      C      0.824220000000     0.880910000000     0.479450000000     0.411174   
C24      C      0.806820000000     0.809270000000     0.416140000000     0.413292   
C25      C      0.129790000000     0.826200000000     0.486130000000     0.410842   
C26      C      0.198030000000     0.806620000000     0.417120000000     0.413879   
C27      C      0.185290000000     0.876030000000     0.490070000000     0.418853   
C28      C      0.198730000000     0.803580000000     0.552310000000     0.414059   
C29      C      0.132180000000     0.184690000000     0.492820000000     0.409769   
C30      C      0.202930000000     0.195350000000     0.560410000000     0.412949   
C31      C      0.185280000000     0.128240000000     0.495750000000     0.417254   
C32      C      0.197310000000     0.198560000000     0.420540000000     0.415604   
C33      C      0.200320000000     0.936680000000     0.528520000000    -0.0964921  
C34      C      0.206190000000     0.092920000000     0.476450000000     0.0772562  
C35      C      0.170860000000     0.090380000000     0.518340000000     0.0765279  
C36      C      0.208290000000     0.068040000000     0.476490000000    -0.0935657  
C37      C      0.198970000000     0.015340000000     0.459310000000    -0.0341339  
C38      C      0.199140000000     0.990390000000     0.458270000000    -0.0337503  
C39      C      0.192650000000     0.027510000000     0.497320000000    -0.00579838 
C40      C      0.172420000000     0.065520000000     0.519060000000    -0.0939324  
C41      C      0.193030000000     0.977020000000     0.495240000000    -0.00647968 
C42      C      0.182460000000     0.938820000000     0.457780000000    -0.0946735  
C43      C      0.187140000000     0.989200000000     0.533460000000    -0.033796   
C44      C      0.180780000000     0.913980000000     0.457480000000     0.0758766  
C45      C      0.198450000000     0.911720000000     0.527500000000     0.0899622  
C46      C      0.186970000000     0.014130000000     0.534490000000    -0.0341717  
C47      C      0.207610000000     0.898900000000     0.564820000000     0.0480114  
C48      C      0.191230000000     0.054010000000     0.497830000000     0.0517614  
C49      C      0.192100000000     0.950500000000     0.493690000000     0.0534661  
C50      C      0.939090000000     0.822340000000     0.442950000000    -0.0957828  
C51      C      0.092850000000     0.830740000000     0.522790000000     0.0764448  
C52      C      0.093180000000     0.820090000000     0.448570000000     0.0764213  
C53      C      0.067900000000     0.830610000000     0.522920000000    -0.0935346  
C54      C      0.015910000000     0.843110000000     0.506640000000    -0.0341692  
C55      C      0.990950000000     0.843430000000     0.505820000000    -0.0339327  
C56      C      0.028660000000     0.825410000000     0.484300000000    -0.00572484 
C57      C      0.068230000000     0.819820000000     0.447540000000    -0.0934844  
C58      C      0.978130000000     0.826080000000     0.482580000000    -0.00616662 
C59      C      0.938530000000     0.831420000000     0.518860000000    -0.0942568  
C60      C      0.990850000000     0.808360000000     0.460280000000    -0.0337571  
C61      C      0.913640000000     0.832090000000     0.517260000000     0.0758947  
C62      C      0.914040000000     0.823160000000     0.442070000000     0.0901902  
C63      C      0.015820000000     0.808010000000     0.461160000000    -0.0338345  
C64      C      0.902660000000     0.818420000000     0.400810000000     0.0508516  
C65      C      0.055240000000     0.825210000000     0.484960000000     0.0514637  
C66      C      0.951580000000     0.826570000000     0.481470000000     0.0535108  
C67      C      0.800480000000     0.072550000000     0.482350000000    -0.0960775  
C68      C      0.820750000000     0.916900000000     0.438980000000     0.0763377  
C69      C      0.822580000000     0.918220000000     0.515630000000     0.0763158  
C70      C      0.819400000000     0.941770000000     0.436880000000    -0.0935262  
C71      C      0.831900000000     0.994310000000     0.441180000000    -0.0342377  
C72      C      0.832000000000     0.019250000000     0.440360000000    -0.0338433  
C73      C      0.819290000000     0.981820000000     0.473390000000    -0.00568799 
C74      C      0.821370000000     0.943130000000     0.514730000000    -0.093645   
C75      C      0.819590000000     0.032350000000     0.471840000000    -0.00626568 
C76      C      0.841900000000     0.070820000000     0.462640000000    -0.0943819  
C77      C      0.806730000000     0.019870000000     0.503730000000    -0.0337602  
C78      C      0.842850000000     0.095660000000     0.463960000000     0.0755719  
C79      C      0.801890000000     0.097560000000     0.483640000000     0.0901238  
C80      C      0.806550000000     0.994910000000     0.504450000000    -0.0340594  
C81      C      0.780120000000     0.110220000000     0.494130000000     0.0495816  
C82      C      0.819870000000     0.955260000000     0.475020000000     0.0513356  
C83      C      0.820610000000     0.058910000000     0.472090000000     0.0533391  
C84      C      0.941380000000     0.192820000000     0.534070000000    -0.096202   
C85      C      0.095250000000     0.189400000000     0.455590000000     0.0760082  
C86      C      0.096200000000     0.189140000000     0.532360000000     0.0773904  
C87      C      0.070380000000     0.191480000000     0.455870000000    -0.0931156  
C88      C      0.018810000000     0.207370000000     0.466680000000    -0.0339021  
C89      C      0.993850000000     0.207570000000     0.466810000000    -0.0337074  
C90      C      0.031580000000     0.193100000000     0.496310000000    -0.00576152 
C91      C      0.071380000000     0.191240000000     0.533830000000    -0.0938835  
C92      C      0.981080000000     0.193510000000     0.496590000000    -0.00619368 
C93      C      0.942220000000     0.191840000000     0.456350000000    -0.0942975  
C94      C      0.993840000000     0.179470000000     0.526550000000    -0.0337203  
C95      C      0.917380000000     0.190270000000     0.455920000000     0.0784175  
C96      C      0.916370000000     0.191290000000     0.532850000000     0.0906914  
C97      C      0.018780000000     0.179250000000     0.526390000000    -0.0338319  
C98      C      0.904220000000     0.191490000000     0.574140000000     0.0478778  
C99      C      0.058100000000     0.192160000000     0.495320000000     0.0517028  
C100     C      0.954550000000     0.192910000000     0.495670000000     0.054124   
C101     C      0.741750000000     0.719120000000     0.831090000000    -0.0963739  
C102     C      0.773230000000     0.809000000000     0.598010000000     0.0764112  
C103     C      0.806420000000     0.783140000000     0.607110000000     0.0769184  
C104     C      0.761920000000     0.798690000000     0.633740000000    -0.0935834  
C105     C      0.749020000000     0.783100000000     0.725170000000    -0.03419    
C106     C      0.738480000000     0.772640000000     0.761580000000    -0.0338394  
C107     C      0.761490000000     0.769050000000     0.695090000000    -0.00565972 
C108     C      0.795650000000     0.772450000000     0.642970000000    -0.0933754  
C109     C      0.740210000000     0.747900000000     0.768810000000    -0.00637988 
C110     C      0.706790000000     0.743530000000     0.822190000000    -0.0943481  
C111     C      0.752490000000     0.733840000000     0.738550000000    -0.0336794  
C112     C      0.696790000000     0.732490000000     0.858430000000     0.0754786  
C113     C      0.731390000000     0.708330000000     0.867480000000     0.0901109  
C114     C      0.762980000000     0.744280000000     0.702140000000    -0.0339865  
C115     C      0.745580000000     0.690360000000     0.889490000000     0.0488371  
C116     C      0.773120000000     0.780190000000     0.656780000000     0.0515586  
C117     C      0.729440000000     0.736750000000     0.807890000000     0.053465   
C118     C      0.792440000000     0.764920000000     0.331480000000    -0.0955551  
C119     C      0.701720000000     0.736220000000     0.097890000000     0.0767581  
C120     C      0.725360000000     0.701480000000     0.107680000000     0.0771718  
C121     C      0.712360000000     0.746810000000     0.134010000000    -0.093536   
C122     C      0.747130000000     0.769720000000     0.197050000000    -0.0339285  
C123     C      0.757730000000     0.779920000000     0.233610000000    -0.0335994  
C124     C      0.741220000000     0.745310000000     0.196510000000    -0.00557119 
C125     C      0.736400000000     0.711540000000     0.143900000000    -0.0931975  
C126     C      0.762730000000     0.765960000000     0.270460000000    -0.0060415  
C127     C      0.766930000000     0.799180000000     0.324040000000    -0.0941045  
C128     C      0.756850000000     0.741570000000     0.269950000000    -0.0337267  
C129     C      0.778020000000     0.809300000000     0.360060000000     0.0763706  
C130     C      0.803410000000     0.775490000000     0.367560000000     0.090795   
C131     C      0.746190000000     0.731370000000     0.233440000000    -0.0338083  
C132     C      0.822260000000     0.761930000000     0.388400000000     0.0514907  
C133     C      0.729880000000     0.734450000000     0.157650000000     0.0517205  
C134     C      0.774140000000     0.776800000000     0.309210000000     0.0537738  
C135     C      0.750210000000     0.288830000000     0.842190000000    -0.0960092  
C136     C      0.796990000000     0.237570000000     0.586710000000     0.0782152  
C137     C      0.796560000000     0.200580000000     0.624310000000     0.0794953  
C138     C      0.786360000000     0.248930000000     0.621870000000    -0.0932322  
C139     C      0.751510000000     0.265170000000     0.690550000000    -0.0337071  
C140     C      0.740910000000     0.276400000000     0.725940000000    -0.0332477  
C141     C      0.769190000000     0.247640000000     0.696800000000    -0.00523704 
C142     C      0.785860000000     0.211360000000     0.660030000000    -0.0929272  
C143     C      0.747700000000     0.270350000000     0.768450000000    -0.00599541 
C144     C      0.712050000000     0.287360000000     0.806460000000    -0.0940107  
C145     C      0.765300000000     0.252740000000     0.774700000000    -0.0333343  
C146     C      0.701790000000     0.298360000000     0.842290000000     0.0775295  
C147     C      0.739500000000     0.299820000000     0.877900000000     0.0909204  
C148     C      0.775940000000     0.241550000000     0.739320000000    -0.0335744  
C149     C      0.755160000000     0.306030000000     0.913530000000     0.0487163  
C150     C      0.780600000000     0.235830000000     0.659130000000     0.0526572  
C151     C      0.736500000000     0.282340000000     0.806140000000     0.0541479  
C152     C      0.799670000000     0.244100000000     0.322550000000    -0.0964244  
C153     C      0.700000000000     0.282730000000     0.106640000000     0.0763624  
C154     C      0.730590000000     0.312030000000     0.106740000000     0.078411   
C155     C      0.710330000000     0.271440000000     0.142510000000    -0.0936799  
C156     C      0.744420000000     0.243740000000     0.200930000000    -0.0339203  
C157     C      0.755780000000     0.232630000000     0.235990000000    -0.0336455  
C158     C      0.742780000000     0.268760000000     0.198690000000    -0.00562623 
C159     C      0.741370000000     0.301220000000     0.142610000000    -0.0933807  
C160     C      0.765760000000     0.246300000000     0.269570000000    -0.00626238 
C161     C      0.769200000000     0.213950000000     0.325620000000    -0.0939605  
C162     C      0.763860000000     0.271310000000     0.267560000000    -0.0336747  
C163     C      0.781100000000     0.203460000000     0.360600000000     0.0750142  
C164     C      0.811340000000     0.233250000000     0.357670000000     0.0905532  
C165     C      0.752510000000     0.282410000000     0.232540000000    -0.0338894  
C166     C      0.833440000000     0.244220000000     0.371810000000     0.0503224  
C167     C      0.731300000000     0.280640000000     0.160890000000     0.0521105  
C168     C      0.778340000000     0.234610000000     0.306370000000     0.0535916  
C169     C      0.690220000000     0.443840000000     0.935810000000    -0.0961096  
C170     C      0.679170000000     0.596890000000     0.017100000000     0.0770596  
C171     C      0.683900000000     0.598470000000     0.940880000000     0.0777734  
C172     C      0.680970000000     0.572020000000     0.016540000000    -0.0935898  
C173     C      0.698850000000     0.521020000000     0.007540000000    -0.0339235  
C174     C      0.699910000000     0.496100000000     0.006780000000    -0.0334826  
C175     C      0.685750000000     0.533600000000     0.975930000000    -0.00571191 
C176     C      0.685690000000     0.573630000000     0.939110000000    -0.0935959  
C177     C      0.687860000000     0.483160000000     0.974460000000    -0.00629436 
C178     C      0.686340000000     0.443820000000     0.013230000000    -0.0946296  
C179     C      0.674940000000     0.495760000000     0.942630000000    -0.0336101  
C180     C      0.685940000000     0.418950000000     0.012750000000     0.0778623  
C181     C      0.689780000000     0.418790000000     0.936130000000     0.0907082  
C182     C      0.673920000000     0.520690000000     0.943340000000    -0.0339314  
C183     C      0.692170000000     0.407100000000     0.894650000000     0.0480539  
C184     C      0.684200000000     0.560070000000     0.977220000000     0.0519736  
C185     C      0.688280000000     0.456610000000     0.974490000000     0.0539197  
C186     C      0.300170000000     0.720850000000     0.808050000000    -0.0962555  
C187     C      0.195410000000     0.779220000000     0.615170000000     0.0771703  
C188     C      0.233500000000     0.792280000000     0.591570000000     0.0784128  
C189     C      0.205770000000     0.767520000000     0.650600000000    -0.0930293  
C190     C      0.233410000000     0.734280000000     0.710350000000    -0.0339272  
C191     C      0.244110000000     0.723220000000     0.746160000000    -0.0338407  
C192     C      0.241970000000     0.756310000000     0.694790000000    -0.00543175 
C193     C      0.244460000000     0.780650000000     0.626410000000    -0.0931965  
C194     C      0.263740000000     0.733840000000     0.767020000000    -0.00622648 
C195     C      0.261580000000     0.712430000000     0.838260000000    -0.0942517  
C196     C      0.272310000000     0.755830000000     0.751550000000    -0.0335824  
C197     C      0.272780000000     0.702170000000     0.874240000000     0.0756046  
C198     C      0.311030000000     0.710270000000     0.844320000000     0.0905292  
C199     C      0.261510000000     0.766980000000     0.716000000000    -0.0335854  
C200     C      0.336890000000     0.709940000000     0.844910000000     0.0508792  
C201     C      0.230600000000     0.768210000000     0.656750000000     0.0520104  
C202     C      0.275290000000     0.722110000000     0.804850000000     0.0537834  
C203     C      0.263230000000     0.705560000000     0.147120000000    -0.0963398  
C204     C      0.226220000000     0.806900000000     0.359850000000     0.0768983  
C205     C      0.200560000000     0.773630000000     0.369240000000     0.0768837  
C206     C      0.236950000000     0.796020000000     0.324270000000    -0.0936903  
C207     C      0.247370000000     0.774850000000     0.236210000000    -0.0338921  
C208     C      0.257930000000     0.763660000000     0.200720000000    -0.0339319  
C209     C      0.240530000000     0.761530000000     0.272840000000    -0.00581927 
C210     C      0.210790000000     0.762280000000     0.333650000000    -0.0936661  
C211     C      0.261740000000     0.738870000000     0.200890000000    -0.00620975 
C212     C      0.292640000000     0.736690000000     0.142550000000    -0.0938947  
C213     C      0.254930000000     0.725530000000     0.237420000000    -0.03404    
C214     C      0.302830000000     0.725070000000     0.107270000000     0.0746533  
C215     C      0.273660000000     0.694290000000     0.111410000000     0.089858   
C216     C      0.244520000000     0.736730000000     0.273020000000    -0.0337759  
C217     C      0.262690000000     0.672190000000     0.097410000000     0.050035   
C218     C      0.229290000000     0.773420000000     0.310670000000     0.0516331  
C219     C      0.272680000000     0.726910000000     0.163000000000     0.0533236  
C220     C      0.435070000000     0.704970000000     0.991770000000    -0.0958643  
C221     C      0.588790000000     0.681760000000     0.950470000000     0.0761963  
C222     C      0.590930000000     0.693630000000     0.023990000000     0.0760752  
C223     C      0.563860000000     0.681820000000     0.952030000000    -0.093945   
C224     C      0.512890000000     0.668090000000     0.975040000000    -0.0342037  
C225     C      0.488000000000     0.667260000000     0.977810000000    -0.0335462  
C226     C      0.525700000000     0.687210000000     0.993140000000    -0.00595167 
C227     C      0.566020000000     0.694040000000     0.026610000000    -0.0937471  
C228     C      0.475330000000     0.685590000000     0.998510000000    -0.00649377 
C229     C      0.437140000000     0.663450000000     0.011180000000    -0.0944961  
C230     C      0.488110000000     0.704770000000     0.016490000000    -0.0336627  
C231     C      0.412260000000     0.662540000000     0.011250000000     0.0759161  
C232     C      0.410030000000     0.703590000000     0.991770000000     0.0911208  
C233     C      0.513050000000     0.705520000000     0.014010000000    -0.0340155  
C234     C      0.397210000000     0.725420000000     0.981980000000     0.0529819  
C235     C      0.552170000000     0.687860000000     0.990490000000     0.0514629  
C236     C      0.448850000000     0.684720000000     0.000830000000     0.0540018  
C237     C      0.298760000000     0.288910000000     0.807580000000    -0.0964566  
C238     C      0.204340000000     0.223800000000     0.617080000000     0.0776376  
C239     C      0.236000000000     0.196040000000     0.608920000000     0.0764653  
C240     C      0.215620000000     0.233790000000     0.653070000000    -0.0945819  
C241     C      0.237080000000     0.240250000000     0.743130000000    -0.0342922  
C242     C      0.248420000000     0.250740000000     0.778640000000    -0.0338696  
C243     C      0.249890000000     0.235410000000     0.705120000000    -0.0062807  
C244     C      0.247930000000     0.205810000000     0.644520000000    -0.0943189  
C245     C      0.272730000000     0.256850000000     0.776690000000    -0.00664454 
C246     C      0.281280000000     0.260170000000     0.855960000000    -0.0949888  
C247     C      0.285580000000     0.251910000000     0.738770000000    -0.0338269  
C248     C      0.292110000000     0.271800000000     0.890700000000     0.0760723  
C249     C      0.309250000000     0.300470000000     0.843050000000     0.0915888  
C250     C      0.274300000000     0.241160000000     0.703410000000    -0.0339009  
C251     C      0.324020000000     0.321040000000     0.833450000000     0.0533624  
C252     C      0.237670000000     0.224830000000     0.667120000000     0.052175   
C253     C      0.284500000000     0.268720000000     0.813890000000     0.054154   
C254     C      0.213460000000     0.213300000000     0.307550000000    -0.0966111  
C255     C      0.310130000000     0.277960000000     0.119390000000     0.0771302  
C256     C      0.278580000000     0.305840000000     0.110340000000     0.0760991  
C257     C      0.298720000000     0.267930000000     0.155210000000    -0.0940821  
C258     C      0.276760000000     0.260700000000     0.244460000000    -0.0344027  
C259     C      0.265130000000     0.250160000000     0.279620000000    -0.0338317  
C260     C      0.264130000000     0.266150000000     0.206280000000    -0.00606675 
C261     C      0.266550000000     0.296050000000     0.145770000000    -0.0939227  
C262     C      0.240680000000     0.244640000000     0.277190000000    -0.00670729 
C263     C      0.232270000000     0.240850000000     0.356410000000    -0.0949423  
C264     C      0.228020000000     0.250150000000     0.239060000000    -0.0339404  
C265     C      0.221220000000     0.229240000000     0.390960000000     0.0752531  
C266     C      0.202720000000     0.201760000000     0.342850000000     0.0902147  
C267     C      0.239600000000     0.260920000000     0.204040000000    -0.0341833  
C268     C      0.187270000000     0.181770000000     0.332940000000     0.0493183  
C269     C      0.276620000000     0.276890000000     0.168680000000     0.0517391  
C270     C      0.228540000000     0.232860000000     0.314180000000     0.0535599  
C271     C      0.443570000000     0.309450000000     0.951590000000    -0.095382   
C272     C      0.594210000000     0.342210000000     0.996970000000     0.0766429  
C273     C      0.599140000000     0.301480000000     0.978400000000     0.0772061  
C274     C      0.569490000000     0.339310000000     0.998740000000    -0.093829   
C275     C      0.519250000000     0.325700000000     0.023280000000    -0.0336844  
C276     C      0.494380000000     0.323860000000     0.023370000000    -0.0333569  
C277     C      0.532890000000     0.313750000000     0.991970000000    -0.00573359 
C278     C      0.574450000000     0.297900000000     0.980140000000    -0.093644   
C279     C      0.482480000000     0.309840000000     0.992380000000    -0.00578241 
C280     C      0.442620000000     0.309160000000     0.029320000000    -0.0937507  
C281     C      0.496150000000     0.297350000000     0.961780000000    -0.0337068  
C282     C      0.417780000000     0.310510000000     0.027610000000     0.078989   
C283     C      0.418550000000     0.310600000000     0.950670000000     0.091255   
C284     C      0.521050000000     0.299320000000     0.961510000000    -0.0336723  
C285     C      0.407370000000     0.311000000000     0.908310000000     0.0505292  
C286     C      0.559260000000     0.316950000000     0.990400000000     0.051874   
C287     C      0.455900000000     0.309130000000     0.991100000000     0.0541976  
C288     C      0.346070000000     0.436670000000     0.001950000000    -0.0965027  
C289     C      0.315080000000     0.587730000000     0.020090000000     0.0786824  
C290     C      0.324900000000     0.588330000000     0.945450000000     0.0775054  
C291     C      0.314260000000     0.562820000000     0.019890000000    -0.0936575  
C292     C      0.301850000000     0.510580000000     0.002130000000    -0.0340906  
C293     C      0.303090000000     0.485660000000     0.003710000000    -0.0335844  
C294     C      0.319950000000     0.523890000000     0.981830000000    -0.00598198 
C295     C      0.324510000000     0.563400000000     0.944230000000    -0.0939586  
C296     C      0.322620000000     0.473600000000     0.985530000000    -0.00656706 
C297     C      0.305220000000     0.432550000000     0.979010000000    -0.0944422  
C298     C      0.340570000000     0.486900000000     0.964840000000    -0.0336634  
C299     C      0.307690000000     0.407780000000     0.981380000000     0.0769134  
C300     C      0.348060000000     0.411770000000     0.004610000000     0.0905557  
C301     C      0.339180000000     0.511780000000     0.962800000000    -0.0338273  
C302     C      0.371040000000     0.402450000000     0.018190000000     0.0483124  
C303     C      0.319290000000     0.550360000000     0.981810000000     0.0522974  
C304     C      0.324600000000     0.447260000000     0.988900000000     0.0540799  
H1       H      0.155900000000     0.098570000000     0.534830000000     0.0296703  
H2       H      0.172870000000     0.905880000000     0.428990000000     0.0308137  
H3       H      0.182310000000     0.022930000000     0.564440000000     0.0398272  
H4       H      0.204020000000     0.981560000000     0.428450000000     0.0398715  
H5       H      0.175650000000     0.948810000000     0.430290000000     0.0555944  
H6       H      0.203240000000     0.025090000000     0.430000000000     0.0401972  
H7       H      0.208320000000     0.945320000000     0.556410000000     0.0595564  
H8       H      0.158640000000     0.055400000000     0.535430000000     0.055272   
H9       H      0.223280000000     0.059900000000     0.460120000000     0.0557839  
H10      H      0.182130000000     0.979470000000     0.562400000000     0.0403528  
H11      H      0.219680000000     0.103180000000     0.459500000000     0.030732   
H12      H      0.102580000000     0.815990000000     0.418870000000     0.0306867  
H13      H      0.904420000000     0.835950000000     0.547250000000     0.0316638  
H14      H      0.025060000000     0.793910000000     0.444150000000     0.0403661  
H15      H      0.981690000000     0.857530000000     0.522810000000     0.0396134  
H16      H      0.947470000000     0.834490000000     0.549500000000     0.0557581  
H17      H      0.025220000000     0.857010000000     0.524190000000     0.0395659  
H18      H      0.948840000000     0.818740000000     0.413390000000     0.0598713  
H19      H      0.059220000000     0.815830000000     0.417330000000     0.0555245  
H20      H      0.058620000000     0.834530000000     0.552760000000     0.0553528  
H21      H      0.981500000000     0.794540000000     0.442590000000     0.0414452  
H22      H      0.101970000000     0.835040000000     0.552790000000     0.0310469  
H23      H      0.823930000000     0.909520000000     0.546970000000     0.0300961  
H24      H      0.859920000000     0.103910000000     0.456740000000     0.0314113  
H25      H      0.796390000000     0.985890000000     0.529390000000     0.0398679  
H26      H      0.841850000000     0.028260000000     0.414990000000     0.0395409  
H27      H      0.858020000000     0.061020000000     0.455080000000     0.0555068  
H28      H      0.842130000000     0.984850000000     0.417010000000     0.039611   
H29      H      0.783600000000     0.063770000000     0.488980000000     0.0594014  
H30      H      0.822130000000     0.952780000000     0.545010000000     0.0551834  
H31      H      0.817860000000     0.950330000000     0.405500000000     0.0554396  
H32      H      0.797170000000     0.029370000000     0.528740000000     0.0405516  
H33      H      0.820430000000     0.907120000000     0.408740000000     0.0314749  
H34      H      0.105800000000     0.188250000000     0.562880000000     0.0314483  
H35      H      0.908770000000     0.189190000000     0.424470000000     0.0344379  
H36      H      0.028030000000     0.167740000000     0.549190000000     0.0400578  
H37      H      0.984530000000     0.218830000000     0.443700000000     0.0408181  
H38      H      0.951730000000     0.191630000000     0.425870000000     0.0566923  
H39      H      0.028130000000     0.218520000000     0.443510000000     0.0401271  
H40      H      0.950550000000     0.194080000000     0.564990000000     0.0597755  
H41      H      0.062660000000     0.192120000000     0.565030000000     0.0556103  
H42      H      0.060830000000     0.191920000000     0.425320000000     0.0558024  
H43      H      0.984540000000     0.168140000000     0.549460000000     0.0406645  
H44      H      0.104080000000     0.188560000000     0.424450000000     0.0319375  
H45      H      0.823900000000     0.776720000000     0.597610000000     0.0318768  
H46      H      0.679060000000     0.738240000000     0.867870000000     0.0310845  
H47      H      0.772060000000     0.732870000000     0.679250000000     0.040448   
H48      H      0.729390000000     0.784000000000     0.784540000000     0.0396841  
H49      H      0.696580000000     0.757000000000     0.804990000000     0.0555899  
H50      H      0.747810000000     0.802270000000     0.721060000000     0.0397566  
H51      H      0.759560000000     0.713890000000     0.821100000000     0.0597856  
H52      H      0.805120000000     0.758440000000     0.660130000000     0.0560941  
H53      H      0.744380000000     0.805030000000     0.642900000000     0.0551062  
H54      H      0.753780000000     0.714670000000     0.742760000000     0.0410285  
H55      H      0.763980000000     0.823260000000     0.581000000000     0.0298518  
H56      H      0.730880000000     0.683700000000     0.098150000000     0.0323219  
H57      H      0.771730000000     0.826730000000     0.370100000000     0.0323904  
H58      H      0.741510000000     0.712620000000     0.234430000000     0.040265   
H59      H      0.762370000000     0.798690000000     0.232740000000     0.040567   
H60      H      0.752590000000     0.808840000000     0.308100000000     0.0557248  
H61      H      0.743900000000     0.780900000000     0.168950000000     0.0399334  
H62      H      0.798490000000     0.747600000000     0.320340000000     0.060363   
H63      H      0.750120000000     0.701470000000     0.160740000000     0.0562145  
H64      H      0.706550000000     0.764430000000     0.143730000000     0.0551517  
H65      H      0.760150000000     0.730410000000     0.298060000000     0.0406946  
H66      H      0.688110000000     0.746290000000     0.080660000000     0.0303418  
H67      H      0.800260000000     0.181600000000     0.626160000000     0.0330968  
H68      H      0.682710000000     0.301660000000     0.840970000000     0.0326694  
H69      H      0.789660000000     0.228310000000     0.745320000000     0.0411877  
H70      H      0.727570000000     0.290040000000     0.719930000000     0.040838   
H71      H      0.700710000000     0.282440000000     0.779440000000     0.0563779  
H72      H      0.745670000000     0.270100000000     0.658260000000     0.0403506  
H73      H      0.769320000000     0.285580000000     0.842370000000     0.0602609  
H74      H      0.781440000000     0.200460000000     0.687920000000     0.0566712  
H75      H      0.782970000000     0.267940000000     0.619970000000     0.0565688  
H76      H      0.770750000000     0.247430000000     0.807010000000     0.0408487  
H77      H      0.801190000000     0.248340000000     0.558500000000     0.03159    
H78      H      0.739020000000     0.327830000000     0.093350000000     0.0333701  
H79      H      0.773110000000     0.187600000000     0.374630000000     0.0323917  
H80      H      0.751170000000     0.301700000000     0.232180000000     0.0403009  
H81      H      0.757200000000     0.213340000000     0.236330000000     0.0400135  
H82      H      0.752650000000     0.206100000000     0.314260000000     0.0559237  
H83      H      0.737390000000     0.232730000000     0.175100000000     0.0401844  
H84      H      0.807390000000     0.259840000000     0.307520000000     0.059927   
H85      H      0.757740000000     0.308760000000     0.155430000000     0.056798   
H86      H      0.701790000000     0.255740000000     0.155960000000     0.0552633  
H87      H      0.770970000000     0.282330000000     0.293300000000     0.0409659  
H88      H      0.683780000000     0.275080000000     0.093300000000     0.0298518  
H89      H      0.685180000000     0.608340000000     0.910690000000     0.0319595  
H90      H      0.684090000000     0.409970000000     0.043740000000     0.0323881  
H91      H      0.663400000000     0.529820000000     0.918870000000     0.0401109  
H92      H      0.710340000000     0.486970000000     0.031390000000     0.0401899  
H93      H      0.684560000000     0.452960000000     0.043890000000     0.0558585  
H94      H      0.708480000000     0.530470000000     0.032680000000     0.0404947  
H95      H      0.692270000000     0.453360000000     0.905390000000     0.0599062  
H96      H      0.688470000000     0.565140000000     0.908100000000     0.0564307  
H97      H      0.679430000000     0.562220000000     0.046700000000     0.0554212  
H98      H      0.665140000000     0.486350000000     0.917680000000     0.0407683  
H99      H      0.676540000000     0.605480000000     0.048120000000     0.0305835  
H100     H      0.244860000000     0.801790000000     0.568970000000     0.0316116  
H101     H      0.261320000000     0.695130000000     0.899480000000     0.0315398  
H102     H      0.268300000000     0.784150000000     0.705550000000     0.0411912  
H103     H      0.237280000000     0.706150000000     0.757110000000     0.0402787  
H104     H      0.242260000000     0.713200000000     0.837100000000     0.0563075  
H105     H      0.218640000000     0.725360000000     0.694470000000     0.0396349  
H106     H      0.311140000000     0.727990000000     0.782160000000     0.0602839  
H107     H      0.263730000000     0.781310000000     0.629300000000     0.0561306  
H108     H      0.194290000000     0.758400000000     0.673440000000     0.0555069  
H109     H      0.287180000000     0.764640000000     0.767390000000     0.0416967  
H110     H      0.176140000000     0.778430000000     0.611750000000     0.0309679  
H111     H      0.186290000000     0.764430000000     0.386110000000     0.0301977  
H112     H      0.318380000000     0.733350000000     0.092720000000     0.0328294  
H113     H      0.239900000000     0.725950000000     0.300950000000     0.0397398  
H114     H      0.262730000000     0.774370000000     0.172790000000     0.0403566  
H115     H      0.300620000000     0.753100000000     0.154120000000     0.056194   
H116     H      0.244220000000     0.793910000000     0.234600000000     0.0398177  
H117     H      0.247570000000     0.697790000000     0.162240000000     0.0597157  
H118     H      0.204010000000     0.744990000000     0.323960000000     0.0553816  
H119     H      0.251410000000     0.805170000000     0.307980000000     0.0553301  
H120     H      0.257970000000     0.706440000000     0.238750000000     0.0407796  
H121     H      0.232720000000     0.824350000000     0.369410000000     0.0305838  
H122     H      0.601050000000     0.698210000000     0.052800000000     0.0303089  
H123     H      0.404110000000     0.645500000000     0.019050000000     0.0311656  
H124     H      0.522420000000     0.720560000000     0.028020000000     0.0402212  
H125     H      0.478640000000     0.652360000000     0.963260000000     0.0403955  
H126     H      0.447170000000     0.647470000000     0.019140000000     0.0558183  
H127     H      0.522130000000     0.653590000000     0.959150000000     0.0399308  
H128     H      0.443790000000     0.721690000000     0.983680000000     0.0605194  
H129     H      0.557690000000     0.698640000000     0.057060000000     0.0554204  
H130     H      0.553810000000     0.677230000000     0.923200000000     0.0558041  
H131     H      0.478850000000     0.719090000000     0.032890000000     0.0406085  
H132     H      0.597180000000     0.676870000000     0.920180000000     0.030105   
H133     H      0.244380000000     0.181220000000     0.592350000000     0.0294945  
H134     H      0.288990000000     0.264470000000     0.922730000000     0.030163   
H135     H      0.284560000000     0.237760000000     0.674410000000     0.0405174  
H136     H      0.238050000000     0.254480000000     0.807370000000     0.039989   
H137     H      0.270540000000     0.244430000000     0.862060000000     0.0559555  
H138     H      0.218290000000     0.235830000000     0.745440000000     0.0400397  
H139     H      0.301410000000     0.295860000000     0.775110000000     0.0607231  
H140     H      0.264900000000     0.198300000000     0.654620000000     0.0557608  
H141     H      0.207250000000     0.248660000000     0.669430000000     0.0561477  
H142     H      0.304390000000     0.256290000000     0.736530000000     0.0415869  
H143     H      0.187320000000     0.231300000000     0.607090000000     0.0314023  
H144     H      0.270270000000     0.320690000000     0.093450000000     0.0297771  
H145     H      0.224800000000     0.236130000000     0.423110000000     0.030634   
H146     H      0.229460000000     0.264770000000     0.174910000000     0.040197   
H147     H      0.275380000000     0.245950000000     0.308480000000     0.039984   
H148     H      0.243600000000     0.256120000000     0.362800000000     0.0558584  
H149     H      0.295630000000     0.264700000000     0.247230000000     0.0400945  
H150     H      0.210390000000     0.206770000000     0.274960000000     0.0597504  
H151     H      0.249580000000     0.303610000000     0.155430000000     0.0555256  
H152     H      0.306980000000     0.252970000000     0.171810000000     0.0559081  
H153     H      0.209120000000     0.246250000000     0.236420000000     0.0406295  
H154     H      0.327130000000     0.270410000000     0.109780000000     0.0314015  
H155     H      0.610320000000     0.286320000000     0.970430000000     0.0309735  
H156     H      0.408410000000     0.310890000000     0.058280000000     0.0337809  
H157     H      0.530950000000     0.290000000000     0.936730000000     0.0400889  
H158     H      0.484480000000     0.333950000000     0.047140000000     0.041192   
H159     H      0.451360000000     0.308350000000     0.060640000000     0.0563467  
H160     H      0.527770000000     0.336650000000     0.047690000000     0.0399047  
H161     H      0.453400000000     0.309570000000     0.921390000000     0.0601221  
H162     H      0.567370000000     0.280240000000     0.973950000000     0.0553902  
H163     H      0.558490000000     0.354680000000     0.005970000000     0.0558466  
H164     H      0.487610000000     0.286130000000     0.937810000000     0.0403832  
H165     H      0.601370000000     0.359830000000     0.003540000000     0.0305168  
H166     H      0.329140000000     0.597830000000     0.915800000000     0.0303081  
H167     H      0.292200000000     0.397130000000     0.972890000000     0.0319985  
H168     H      0.353480000000     0.521580000000     0.947250000000     0.0407047  
H169     H      0.289060000000     0.475840000000     0.020020000000     0.040344   
H170     H      0.288320000000     0.440120000000     0.968670000000     0.0566868  
H171     H      0.286740000000     0.519470000000     0.016810000000     0.040804   
H172     H      0.361230000000     0.447830000000     0.010370000000     0.0601295  
H173     H      0.328280000000     0.554380000000     0.914050000000     0.0562611  
H174     H      0.310330000000     0.553380000000     0.049700000000     0.0568547  
H175     H      0.355710000000     0.478030000000     0.950220000000     0.0416243  
H176     H      0.311450000000     0.596730000000     0.050380000000     0.0337408  
In1      In     0.333890000000     0.324390000000     0.991800000000     2.41509    
In2      In     0.326520000000     0.672690000000     0.988190000000     2.40872    
In3      In     0.680830000000     0.333810000000     0.981620000000     2.41552    
In4      In     0.674820000000     0.682440000000     0.982420000000     2.41371    
In5      In     0.832130000000     0.181400000000     0.483430000000     2.41888    
In6      In     0.828380000000     0.832790000000     0.482130000000     2.41747    
In7      In     0.178080000000     0.828120000000     0.486380000000     2.4142     
In8      In     0.179770000000     0.176320000000     0.491910000000     2.40738    
N1       N      0.188370000000     0.900390000000     0.492050000000    -0.195619   
N2       N      0.187530000000     0.103930000000     0.496980000000    -0.196499   
N3       N      0.216230000000     0.886980000000     0.599860000000    -0.0920471  
N4       N      0.901320000000     0.828180000000     0.479340000000    -0.194374   
N5       N      0.105340000000     0.825610000000     0.485850000000    -0.194723   
N6       N      0.892080000000     0.813940000000     0.362100000000    -0.0895255  
N7       N      0.823220000000     0.109090000000     0.474790000000    -0.194564   
N8       N      0.822450000000     0.905270000000     0.478040000000    -0.195196   
N9       N      0.759680000000     0.121970000000     0.503960000000    -0.0918898  
N10      N      0.904400000000     0.189710000000     0.493620000000    -0.193997   
N11      N      0.107970000000     0.187920000000     0.493550000000    -0.194506   
N12      N      0.892920000000     0.191690000000     0.612910000000    -0.0920212  
N13      N      0.708730000000     0.714890000000     0.880900000000    -0.195015   
N14      N      0.795310000000     0.801300000000     0.584930000000    -0.195508   
N15      N      0.758970000000     0.673540000000     0.909960000000    -0.0918025  
N16      N      0.796250000000     0.797820000000     0.381660000000    -0.193621   
N17      N      0.708110000000     0.713700000000     0.085030000000    -0.194539   
N18      N      0.839920000000     0.749150000000     0.407780000000    -0.0897837  
N19      N      0.715180000000     0.304430000000     0.878010000000    -0.19504    
N20      N      0.802000000000     0.213600000000     0.587970000000    -0.195261   
N21      N      0.769920000000     0.311810000000     0.946810000000    -0.0912688  
N22      N      0.801880000000     0.213000000000     0.376980000000    -0.194598   
N23      N      0.710140000000     0.302780000000     0.088870000000    -0.195306   
N24      N      0.854140000000     0.254580000000     0.384890000000    -0.0911174  
N25      N      0.687310000000     0.406360000000     0.974710000000    -0.194349   
N26      N      0.680590000000     0.609960000000     0.979540000000    -0.195094   
N27      N      0.694440000000     0.396220000000     0.855710000000    -0.0917679  
N28      N      0.297260000000     0.701100000000     0.877670000000    -0.195414   
N29      N      0.209180000000     0.791650000000     0.586160000000    -0.19508    
N30      N      0.361130000000     0.709710000000     0.845340000000    -0.0891494  
N31      N      0.293560000000     0.704070000000     0.091540000000    -0.194468   
N32      N      0.208220000000     0.795750000000     0.382150000000    -0.195419   
N33      N      0.252360000000     0.651490000000     0.084460000000    -0.0913989  
N34      N      0.398650000000     0.682180000000     0.000750000000    -0.193772   
N35      N      0.602170000000     0.687350000000     0.986310000000    -0.195721   
N36      N      0.385280000000     0.745910000000     0.972770000000    -0.0892198  
N37      N      0.305760000000     0.291950000000     0.884720000000    -0.195137   
N38      N      0.214420000000     0.205030000000     0.595350000000    -0.194974   
N39      N      0.337870000000     0.340270000000     0.824280000000    -0.087673   
N40      N      0.206810000000     0.209660000000     0.384680000000    -0.194875   
N41      N      0.300120000000     0.296750000000     0.097200000000    -0.194733   
N42      N      0.172800000000     0.163060000000     0.323470000000    -0.0921716  
N43      N      0.405700000000     0.311780000000     0.988840000000    -0.193135   
N44      N      0.608880000000     0.323460000000     0.986800000000    -0.195159   
N45      N      0.396950000000     0.311360000000     0.868580000000    -0.0873313  
N46      N      0.328870000000     0.397300000000     0.993820000000    -0.19536    
N47      N      0.320560000000     0.600330000000     0.983250000000    -0.194463   
N48      N      0.392600000000     0.393790000000     0.030870000000    -0.0920621  
O1       O      0.303530000000     0.323980000000     0.041100000000    -0.50346    
O2       O      0.330800000000     0.297760000000     0.047460000000    -0.49435    
O3       O      0.326020000000     0.322670000000     0.919350000000    -0.489012   
O4       O      0.313500000000     0.359500000000     0.981130000000    -0.495654   
O5       O      0.369890000000     0.317700000000     0.024600000000    -0.486322   
O6       O      0.348430000000     0.361440000000     0.006930000000    -0.502956   
O7       O      0.313850000000     0.294030000000     0.958210000000    -0.508849   
O8       O      0.368550000000     0.316590000000     0.956110000000    -0.492121   
O9       O      0.294630000000     0.684150000000     0.946080000000    -0.505278   
O10      O      0.329200000000     0.688530000000     0.920200000000    -0.493413   
O11      O      0.296930000000     0.674950000000     0.038580000000    -0.487654   
O12      O      0.319910000000     0.636370000000     0.019210000000    -0.490586   
O13      O      0.360210000000     0.695690000000     0.985680000000    -0.479243   
O14      O      0.326500000000     0.637310000000     0.951440000000    -0.501387   
O15      O      0.323370000000     0.701830000000     0.039800000000    -0.500181   
O16      O      0.363950000000     0.659910000000     0.006820000000    -0.503264   
O17      O      0.681450000000     0.305480000000     0.035140000000    -0.504411   
O18      O      0.708840000000     0.331660000000     0.035400000000    -0.492525   
O19      O      0.681620000000     0.319260000000     0.912490000000    -0.497688   
O20      O      0.647470000000     0.310430000000     0.974620000000    -0.489178   
O21      O      0.683600000000     0.370650000000     0.012130000000    -0.494726   
O22      O      0.642810000000     0.346520000000     0.993720000000    -0.506028   
O23      O      0.714090000000     0.319930000000     0.947610000000    -0.502044   
O24      O      0.685500000000     0.368590000000     0.943750000000    -0.497548   
O25      O      0.701980000000     0.682460000000     0.037660000000    -0.495034   
O26      O      0.681160000000     0.713800000000     0.028140000000    -0.499363   
O27      O      0.706690000000     0.687720000000     0.937790000000    -0.498149   
O28      O      0.679980000000     0.647140000000     0.947010000000    -0.497784   
O29      O      0.639700000000     0.690190000000     0.017240000000    -0.500728   
O30      O      0.675410000000     0.645780000000     0.015200000000    -0.497439   
O31      O      0.676700000000     0.710020000000     0.927540000000    -0.501477   
O32      O      0.637820000000     0.680680000000     0.950880000000    -0.501963   
O33      O      0.803740000000     0.183600000000     0.429940000000    -0.502708   
O34      O      0.830820000000     0.209900000000     0.430740000000    -0.490195   
O35      O      0.817510000000     0.180840000000     0.552520000000    -0.494309   
O36      O      0.809510000000     0.147490000000     0.488960000000    -0.485791   
O37      O      0.869250000000     0.185570000000     0.454610000000    -0.491579   
O38      O      0.845220000000     0.143870000000     0.467870000000    -0.507033   
O39      O      0.817180000000     0.213860000000     0.518600000000    -0.506159   
O40      O      0.866360000000     0.185980000000     0.522980000000    -0.4977     
O41      O      0.824140000000     0.800730000000     0.437410000000    -0.49082    
O42      O      0.800260000000     0.829680000000     0.428770000000    -0.496883   
O43      O      0.826580000000     0.805330000000     0.536870000000    -0.500695   
O44      O      0.865190000000     0.833600000000     0.514360000000    -0.500392   
O45      O      0.825000000000     0.868220000000     0.445790000000    -0.497321   
O46      O      0.863750000000     0.827140000000     0.447010000000    -0.491908   
O47      O      0.797040000000     0.828730000000     0.528930000000    -0.503419   
O48      O      0.825450000000     0.869290000000     0.514500000000    -0.501514   
O49      O      0.210500000000     0.816180000000     0.525960000000    -0.500319   
O50      O      0.176500000000     0.803220000000     0.545210000000    -0.496998   
O51      O      0.181890000000     0.796870000000     0.439580000000    -0.500844   
O52      O      0.142160000000     0.821640000000     0.453050000000    -0.497469   
O53      O      0.190650000000     0.861990000000     0.520590000000    -0.497354   
O54      O      0.141820000000     0.831580000000     0.519370000000    -0.4977     
O55      O      0.204020000000     0.827220000000     0.429620000000    -0.50161    
O56      O      0.176330000000     0.865740000000     0.457530000000    -0.504422   
O57      O      0.200070000000     0.206530000000     0.458420000000    -0.506897   
O58      O      0.185560000000     0.179360000000     0.418890000000    -0.487148   
O59      O      0.183560000000     0.203700000000     0.545680000000    -0.494054   
O60      O      0.144520000000     0.182370000000     0.526860000000    -0.489948   
O61      O      0.199790000000     0.141680000000     0.476150000000    -0.497245   
O62      O      0.143930000000     0.183080000000     0.458110000000    -0.496578   
O63      O      0.210770000000     0.177370000000     0.540310000000    -0.50298    
O64      O      0.168250000000     0.139090000000     0.513620000000    -0.509872   


