data_structure

_audit_creation_method RASPA-1.0
_audit_creation_date 2023-5-22
_audit_author_name 'Poobodin Mano'

_cell_length_a    46.9937
_cell_length_b    44.0289
_cell_length_c    44.5237
_cell_angle_alpha 90
_cell_angle_beta  90
_cell_angle_gamma 90
_cell_volume      92123.1

_symmetry_cell_setting          triclinic
_symmetry_space_group_name_Hall 'P 1'
_symmetry_space_group_name_H-M  'P 1'
_symmetry_Int_Tables_number     1

_symmetry_equiv_pos_as_xyz 'x,y,z'

loop_
_atom_site_label
_atom_site_type_symbol
_atom_site_fract_x
_atom_site_fract_y
_atom_site_fract_z
_atom_site_charge
C1       C      0.890520000000     0.422030000000     0.922040000000     0.41874    
C2       C      0.822480000000     0.423220000000     0.844340000000     0.415316   
C3       C      0.889480000000     0.360720000000     0.843960000000     0.413222   
C4       C      0.822950000000     0.361270000000     0.922210000000     0.412088   
C5       C      0.073250000000     0.603400000000     0.100270000000     0.417518   
C6       C      0.140900000000     0.673810000000     0.099660000000     0.41661    
C7       C      0.073600000000     0.675470000000     0.168660000000     0.416347   
C8       C      0.141050000000     0.604670000000     0.170390000000     0.416518   
C9       C      0.322150000000     0.855220000000     0.919600000000     0.416749   
C10      C      0.394270000000     0.920830000000     0.917250000000     0.418007   
C11      C      0.391060000000     0.850860000000     0.849940000000     0.419502   
C12      C      0.322310000000     0.923120000000     0.850590000000     0.417866   
C13      C      0.641500000000     0.176900000000     0.098680000000     0.413699   
C14      C      0.574200000000     0.104840000000     0.096190000000     0.419463   
C15      C      0.640180000000     0.105370000000     0.168310000000     0.416003   
C16      C      0.573860000000     0.174820000000     0.167260000000     0.417862   
C17      C      0.389920000000     0.351320000000     0.348960000000     0.411581   
C18      C      0.320520000000     0.423750000000     0.352700000000     0.419673   
C19      C      0.322210000000     0.348360000000     0.416980000000     0.418095   
C20      C      0.390020000000     0.422020000000     0.416500000000     0.412536   
C21      C      0.641470000000     0.601890000000     0.661870000000     0.42114    
C22      C      0.570880000000     0.672350000000     0.665470000000     0.416529   
C23      C      0.641930000000     0.673630000000     0.598070000000     0.417108   
C24      C      0.570150000000     0.606370000000     0.594700000000     0.418054   
C25      C      0.891110000000     0.855740000000     0.348400000000     0.415381   
C26      C      0.822240000000     0.925840000000     0.349290000000     0.417135   
C27      C      0.822420000000     0.855030000000     0.417230000000     0.413918   
C28      C      0.891410000000     0.923300000000     0.419290000000     0.42057    
C29      C      0.069860000000     0.175000000000     0.667620000000     0.414904   
C30      C      0.139510000000     0.105520000000     0.673260000000     0.419642   
C31      C      0.070170000000     0.104320000000     0.602420000000     0.41735    
C32      C      0.141460000000     0.170880000000     0.601140000000     0.413822   
C33      C      0.946760000000     0.945060000000     0.474270000000    -0.0965811  
C34      C      0.033460000000     0.100480000000     0.565930000000     0.0776008  
C35      C      0.053980000000     0.055850000000     0.586440000000     0.0770925  
C36      C      0.015500000000     0.083070000000     0.547800000000    -0.0943906  
C37      C      0.969460000000     0.039780000000     0.525610000000    -0.0342593  
C38      C      0.951920000000     0.021800000000     0.507530000000    -0.0338489  
C39      C      0.998320000000     0.032380000000     0.529470000000    -0.00596943 
C40      C      0.036450000000     0.037750000000     0.568530000000    -0.0941052  
C41      C      0.962880000000     0.996060000000     0.492810000000    -0.00637803 
C42      C      0.923690000000     0.989680000000     0.455020000000    -0.0944881  
C43      C      0.991810000000     0.988820000000     0.496540000000    -0.0337468  
C44      C      0.906430000000     0.971190000000     0.437270000000     0.0757931  
C45      C      0.929230000000     0.926940000000     0.456170000000     0.09086    
C46      C      0.009310000000     0.006730000000     0.514700000000    -0.0341483  
C47      C      0.933320000000     0.894410000000     0.458410000000     0.0490282  
C48      C      0.016950000000     0.051310000000     0.548870000000     0.0520161  
C49      C      0.944200000000     0.976720000000     0.473780000000     0.0535575  
C50      C      0.698210000000     0.728070000000     0.576260000000    -0.0959722  
C51      C      0.785440000000     0.818460000000     0.421400000000     0.0777274  
C52      C      0.807360000000     0.838080000000     0.465280000000     0.0773829  
C53      C      0.767590000000     0.800200000000     0.438820000000    -0.0938959  
C54      C      0.721910000000     0.778180000000     0.482040000000    -0.0339152  
C55      C      0.704170000000     0.760390000000     0.500070000000    -0.0336082  
C56      C      0.750880000000     0.781640000000     0.489170000000    -0.00568452 
C57      C      0.789890000000     0.820100000000     0.483370000000    -0.0935038  
C58      C      0.714980000000     0.745620000000     0.525640000000    -0.00598121 
C59      C      0.675720000000     0.707660000000     0.532220000000    -0.0935972  
C60      C      0.743970000000     0.748970000000     0.532690000000    -0.0334883  
C61      C      0.658100000000     0.690250000000     0.550610000000     0.0774908  
C62      C      0.680240000000     0.710370000000     0.594320000000     0.0914417  
C63      C      0.761710000000     0.766780000000     0.514680000000    -0.0337369  
C64      C      0.683960000000     0.713190000000     0.626480000000     0.0497361  
C65      C      0.769690000000     0.800850000000     0.470210000000     0.0521176  
C66      C      0.696070000000     0.726860000000     0.544940000000     0.0541542  
C67      C      0.274510000000     0.285940000000     0.440560000000    -0.0963397  
C68      C      0.175690000000     0.210150000000     0.595400000000     0.0769553  
C69      C      0.161350000000     0.181140000000     0.553170000000     0.0766426  
C70      C      0.193920000000     0.227410000000     0.577440000000    -0.0937207  
C71      C      0.241870000000     0.249460000000     0.537550000000    -0.0339906  
C72      C      0.259680000000     0.266920000000     0.519290000000    -0.0339587  
C73      C      0.215160000000     0.239670000000     0.527040000000    -0.00576135 
C74      C      0.179490000000     0.197800000000     0.534580000000    -0.0937597  
C75      C      0.251310000000     0.274810000000     0.490020000000    -0.00629472 
C76      C      0.283610000000     0.319280000000     0.482180000000    -0.0944091  
C77      C      0.224730000000     0.264900000000     0.479400000000    -0.0336925  
C78      C      0.300800000000     0.336980000000     0.463620000000     0.07743    
C79      C      0.292110000000     0.303940000000     0.422380000000     0.0903496  
C80      C      0.206820000000     0.247630000000     0.497720000000    -0.0337587  
C81      C      0.295430000000     0.294330000000     0.391470000000     0.0478703  
C82      C      0.196010000000     0.221370000000     0.546590000000     0.0516488  
C83      C      0.270110000000     0.293530000000     0.470690000000     0.0540345  
C84      C      0.518290000000     0.584790000000     0.535940000000    -0.0961321  
C85      C      0.422440000000     0.428220000000     0.456940000000     0.0781003  
C86      C      0.410200000000     0.470460000000     0.426500000000     0.0768156  
C87      C      0.440410000000     0.446390000000     0.474270000000    -0.0942063  
C88      C      0.489250000000     0.486770000000     0.494720000000    -0.0341656  
C89      C      0.506950000000     0.505110000000     0.512220000000    -0.0336409  
C90      C      0.462150000000     0.496990000000     0.486010000000    -0.0059001  
C91      C      0.427850000000     0.489340000000     0.443500000000    -0.0937813  
C92      C      0.497920000000     0.534060000000     0.521580000000    -0.00624365 
C93      C      0.533090000000     0.540600000000     0.563440000000    -0.0942141  
C94      C      0.470810000000     0.544300000000     0.512780000000    -0.0336646  
C95      C      0.550660000000     0.558930000000     0.580970000000     0.0766609  
C96      C      0.536030000000     0.602810000000     0.553950000000     0.090534   
C97      C      0.453170000000     0.526010000000     0.495130000000    -0.0339928  
C98      C      0.536580000000     0.635000000000     0.547290000000     0.0491539  
C99      C      0.443250000000     0.477340000000     0.467680000000     0.0521339  
C100     C      0.516650000000     0.553400000000     0.540560000000     0.0536931  
C101     C      0.667400000000     0.063070000000     0.234080000000    -0.0957187  
C102     C      0.810990000000     0.948630000000     0.302410000000     0.0763008  
C103     C      0.780650000000     0.956110000000     0.344340000000     0.0770037  
C104     C      0.793260000000     0.966490000000     0.284480000000    -0.0940954  
C105     C      0.760440000000     0.019960000000     0.258140000000    -0.03431    
C106     C      0.742330000000     0.037620000000     0.240410000000    -0.0336284  
C107     C      0.749300000000     0.998050000000     0.277860000000    -0.00597171 
C108     C      0.762320000000     0.973890000000     0.326980000000    -0.0942596  
C109     C      0.712650000000     0.033660000000     0.241810000000    -0.00613708 
C110     C      0.700780000000     0.059900000000     0.193350000000    -0.0939916  
C111     C      0.701550000000     0.011650000000     0.261510000000    -0.0337897  
C112     C      0.682600000000     0.077650000000     0.175900000000     0.0758534  
C113     C      0.649380000000     0.080750000000     0.216050000000     0.090942   
C114     C      0.719660000000     0.994140000000     0.279390000000    -0.0339896  
C115     C      0.623270000000     0.091280000000     0.229840000000     0.0510285  
C116     C      0.768540000000     0.979280000000     0.296680000000     0.0518293  
C117     C      0.693360000000     0.052400000000     0.222830000000     0.0534968  
C118     C      0.548300000000     0.224740000000     0.228390000000    -0.0959859  
C119     C      0.396980000000     0.319780000000     0.306310000000     0.0777281  
C120     C      0.435550000000     0.330550000000     0.338940000000     0.0762978  
C121     C      0.414610000000     0.302000000000     0.288160000000    -0.0931785  
C122     C      0.460560000000     0.280730000000     0.244990000000    -0.0339596  
C123     C      0.478860000000     0.263430000000     0.227100000000    -0.0336785  
C124     C      0.462590000000     0.279700000000     0.276490000000    -0.00558503 
C125     C      0.453780000000     0.312980000000     0.321310000000    -0.0935633  
C126     C      0.499650000000     0.244750000000     0.240290000000    -0.00614054 
C127     C      0.509420000000     0.211140000000     0.196050000000    -0.0942607  
C128     C      0.501570000000     0.243570000000     0.271770000000    -0.0335714  
C129     C      0.528180000000     0.194090000000     0.178590000000     0.07687    
C130     C      0.566790000000     0.207540000000     0.210450000000     0.0922297  
C131     C      0.483250000000     0.260810000000     0.289650000000    -0.0336395  
C132     C      0.596330000000     0.206700000000     0.219680000000     0.0528495  
C133     C      0.443410000000     0.298410000000     0.295550000000     0.0518418  
C134     C      0.519360000000     0.226650000000     0.221310000000     0.0542626  
C135     C      0.173010000000     0.071710000000     0.740620000000    -0.096284   
C136     C      0.305880000000     0.940150000000     0.803040000000     0.0767841  
C137     C      0.285440000000     0.959930000000     0.847630000000     0.0772409  
C138     C      0.288030000000     0.958310000000     0.785540000000    -0.0939603  
C139     C      0.259470000000     0.012230000000     0.755470000000    -0.0344354  
C140     C      0.241400000000     0.030330000000     0.738130000000    -0.0337777  
C141     C      0.249170000000     0.997150000000     0.781090000000    -0.00573144 
C142     C      0.267190000000     0.978330000000     0.830820000000    -0.0939717  
C143     C      0.212580000000     0.033740000000     0.745950000000    -0.00645271 
C144     C      0.195030000000     0.052100000000     0.695970000000    -0.0946473  
C145     C      0.202310000000     0.018720000000     0.771630000000    -0.0337204  
C146     C      0.176800000000     0.070000000000     0.678730000000     0.0759993  
C147     C      0.154870000000     0.089500000000     0.722820000000     0.0898196  
C148     C      0.220400000000     0.000660000000     0.789010000000    -0.0341924  
C149     C      0.134650000000     0.108500000000     0.738600000000     0.0475406  
C150     C      0.268360000000     0.977710000000     0.799380000000     0.0517238  
C151     C      0.193300000000     0.052770000000     0.727280000000     0.0534406  
C152     C      0.422780000000     0.783320000000     0.813580000000    -0.0960803  
C153     C      0.556250000000     0.720420000000     0.684120000000     0.0775922  
C154     C      0.532810000000     0.675660000000     0.700420000000     0.0775954  
C155     C      0.538660000000     0.738190000000     0.702300000000    -0.0931847  
C156     C      0.509780000000     0.767440000000     0.756070000000    -0.0340273  
C157     C      0.492040000000     0.784900000000     0.774420000000    -0.0335244  
C158     C      0.498750000000     0.742960000000     0.739480000000    -0.00552795 
C159     C      0.514810000000     0.692750000000     0.718800000000    -0.0936     
C160     C      0.462840000000     0.778300000000     0.776600000000    -0.00621278 
C161     C      0.446890000000     0.828490000000     0.797220000000    -0.0945242  
C162     C      0.451810000000     0.753810000000     0.760000000000    -0.0336244  
C163     C      0.428950000000     0.845690000000     0.815460000000     0.0767469  
C164     C      0.404980000000     0.801080000000     0.831770000000     0.0903887  
C165     C      0.469560000000     0.736340000000     0.741670000000    -0.0338916  
C166     C      0.383790000000     0.784980000000     0.849210000000     0.0492681  
C167     C      0.517620000000     0.724410000000     0.719950000000     0.052074   
C168     C      0.443940000000     0.796940000000     0.796050000000     0.0538209  
C169     C      0.446440000000     0.943830000000     0.975140000000    -0.0954485  
C170     C      0.544140000000     0.099260000000     0.053640000000     0.07731    
C171     C      0.553480000000     0.056940000000     0.085080000000     0.0768749  
C172     C      0.526660000000     0.081490000000     0.035330000000    -0.0942941  
C173     C      0.477590000000     0.042410000000     0.012680000000    -0.0339771  
C174     C      0.459870000000     0.024120000000     0.995110000000    -0.0336874  
C175     C      0.503970000000     0.031460000000     0.022870000000    -0.00588672 
C176     C      0.536290000000     0.038470000000     0.067160000000    -0.0939378  
C177     C      0.468180000000     0.994490000000     0.987190000000    -0.00593894 
C178     C      0.433270000000     0.986930000000     0.945140000000    -0.0940932  
C179     C      0.494710000000     0.983670000000     0.997170000000    -0.0336886  
C180     C      0.415230000000     0.968280000000     0.928460000000     0.0764621  
C181     C      0.428260000000     0.925480000000     0.957980000000     0.0912969  
C182     C      0.512350000000     0.001910000000     0.014880000000    -0.0340214  
C183     C      0.426440000000     0.893820000000     0.966580000000     0.053986   
C184     C      0.522570000000     0.050700000000     0.041980000000     0.0519695  
C185     C      0.449130000000     0.974840000000     0.968850000000     0.0537108  
C186     C      0.042090000000     0.742800000000     0.205560000000    -0.0963429  
C187     C      0.904350000000     0.807550000000     0.328850000000     0.0770174  
C188     C      0.930680000000     0.851470000000     0.315500000000     0.0779901  
C189     C      0.922150000000     0.789410000000     0.311260000000    -0.0934924  
C190     C      0.953150000000     0.759990000000     0.258900000000    -0.0341266  
C191     C      0.971270000000     0.742320000000     0.241170000000    -0.0337879  
C192     C      0.964060000000     0.783660000000     0.276700000000    -0.0056923  
C193     C      0.948890000000     0.834020000000     0.297720000000    -0.0938462  
C194     C      0.000720000000     0.747930000000     0.240800000000    -0.00636686 
C195     C      0.016430000000     0.697850000000     0.219760000000    -0.094658   
C196     C      0.011640000000     0.771530000000     0.258660000000    -0.0336653  
C197     C      0.034710000000     0.680670000000     0.201870000000     0.076516   
C198     C      0.060180000000     0.725070000000     0.187680000000     0.0897897  
C199     C      0.993530000000     0.789180000000     0.276410000000    -0.0339334  
C200     C      0.082380000000     0.741080000000     0.171600000000     0.0482097  
C201     C      0.944790000000     0.802580000000     0.295440000000     0.0520433  
C202     C      0.019990000000     0.729280000000     0.221810000000     0.0535913  
C203     C      0.288510000000     0.820510000000     0.986370000000    -0.0957661  
C204     C      0.154850000000     0.691460000000     0.051410000000     0.0775376  
C205     C      0.178750000000     0.709200000000     0.094910000000     0.0796704  
C206     C      0.172390000000     0.709200000000     0.033110000000    -0.093402   
C207     C      0.201930000000     0.762050000000     0.002000000000    -0.0335983  
C208     C      0.219850000000     0.780060000000     0.984350000000    -0.0335726  
C209     C      0.212710000000     0.746180000000     0.026940000000    -0.00547616 
C210     C      0.196640000000     0.727190000000     0.077310000000    -0.0933891  
C211     C      0.248940000000     0.782630000000     0.991250000000    -0.00583595 
C212     C      0.265910000000     0.802240000000     0.941480000000    -0.0937847  
C213     C      0.259750000000     0.766590000000     0.016050000000    -0.0333409  
C214     C      0.284230000000     0.820320000000     0.924490000000     0.0782026  
C215     C      0.306650000000     0.838530000000     0.968850000000     0.0913457  
C216     C      0.241860000000     0.748580000000     0.033680000000    -0.0335111  
C217     C      0.327260000000     0.856800000000     0.984950000000     0.0523949  
C218     C      0.193660000000     0.727310000000     0.045990000000     0.0525127  
C219     C      0.267990000000     0.802060000000     0.972770000000     0.0543708  
C220     C      0.259610000000     0.471960000000     0.330410000000    -0.0962662  
C221     C      0.183030000000     0.575450000000     0.177250000000     0.0773591  
C222     C      0.151060000000     0.582500000000     0.217880000000     0.0765468  
C223     C      0.201000000000     0.558100000000     0.195410000000    -0.0942005  
C224     C      0.242260000000     0.538120000000     0.244250000000    -0.0341775  
C225     C      0.259970000000     0.520540000000     0.262510000000    -0.0336978  
C226     C      0.212590000000     0.534210000000     0.245040000000    -0.00594318 
C227     C      0.168450000000     0.565110000000     0.236620000000    -0.0940002  
C228     C      0.248440000000     0.498520000000     0.281890000000    -0.00628404 
C229     C      0.293100000000     0.468370000000     0.289820000000    -0.0944372  
C230     C      0.218730000000     0.494670000000     0.282700000000    -0.0336785  
C231     C      0.310390000000     0.450160000000     0.307790000000     0.0769892  
C232     C      0.277300000000     0.453500000000     0.348040000000     0.0906528  
C233     C      0.201020000000     0.512360000000     0.264540000000    -0.0339311  
C234     C      0.267670000000     0.447190000000     0.378300000000     0.047815   
C235     C      0.193790000000     0.552720000000     0.225470000000     0.0519869  
C236     C      0.267310000000     0.479440000000     0.300970000000     0.053754   
C237     C      0.946550000000     0.339300000000     0.790820000000    -0.0957822  
C238     C      0.029950000000     0.181150000000     0.699810000000     0.0788704  
C239     C      0.056010000000     0.224290000000     0.683650000000     0.0776806  
C240     C      0.011590000000     0.199620000000     0.716400000000    -0.0935523  
C241     C      0.967060000000     0.246340000000     0.734800000000    -0.0340909  
C242     C      0.949210000000     0.264950000000     0.751890000000    -0.0337363  
C243     C      0.996630000000     0.251100000000     0.734670000000    -0.00564186 
C244     C      0.038170000000     0.243410000000     0.700120000000    -0.0936864  
C245     C      0.960540000000     0.288660000000     0.769370000000    -0.00590019 
C246     C      0.918730000000     0.295440000000     0.803740000000    -0.0937254  
C247     C      0.990140000000     0.293440000000     0.769150000000    -0.0334388  
C248     C      0.901590000000     0.313750000000     0.821780000000     0.0761973  
C249     C      0.929080000000     0.357250000000     0.809180000000     0.0906722  
C250     C      0.007960000000     0.274920000000     0.751950000000    -0.0335355  
C251     C      0.935640000000     0.389370000000     0.810390000000     0.0488894  
C252     C      0.015650000000     0.231150000000     0.716780000000     0.0524916  
C253     C      0.941640000000     0.308060000000     0.788120000000     0.0537005  
C254     C      0.768150000000     0.341190000000     0.978490000000    -0.0959382  
C255     C      0.678280000000     0.183080000000     0.062620000000     0.0769266  
C256     C      0.657520000000     0.226350000000     0.085570000000     0.0763766  
C257     C      0.696590000000     0.201570000000     0.046030000000    -0.0940204  
C258     C      0.743520000000     0.245710000000     0.028430000000    -0.0342699  
C259     C      0.761620000000     0.264160000000     0.011510000000    -0.0336233  
C260     C      0.714610000000     0.253160000000     0.031660000000    -0.00576667 
C261     C      0.675380000000     0.245530000000     0.069160000000    -0.0935234  
C262     C      0.751210000000     0.290420000000     0.997250000000    -0.00628542 
C263     C      0.790640000000     0.296020000000     0.959730000000    -0.0939766  
C264     C      0.722310000000     0.297990000000     0.000720000000    -0.0335844  
C265     C      0.808040000000     0.314020000000     0.941680000000     0.07619    
C266     C      0.785830000000     0.358840000000     0.960030000000     0.090131   
C267     C      0.704240000000     0.279610000000     0.017800000000    -0.0341182  
C268     C      0.782310000000     0.391460000000     0.961910000000     0.0477772  
C269     C      0.695290000000     0.233200000000     0.049180000000     0.0517062  
C270     C      0.770300000000     0.309470000000     0.978350000000     0.0534401  
C271     C      0.697900000000     0.546940000000     0.681960000000    -0.0964318  
C272     C      0.779580000000     0.427590000000     0.816400000000     0.0770871  
C273     C      0.813410000000     0.467550000000     0.815530000000     0.0777235  
C274     C      0.761450000000     0.444120000000     0.797640000000    -0.0936023  
C275     C      0.720950000000     0.492570000000     0.774030000000    -0.0340024  
C276     C      0.703030000000     0.510350000000     0.756180000000    -0.0336045  
C277     C      0.750320000000     0.491260000000     0.768140000000    -0.0055984  
C278     C      0.795880000000     0.484630000000     0.796690000000    -0.0933823  
C279     C      0.714050000000     0.527090000000     0.731940000000    -0.00633597 
C280     C      0.674190000000     0.564450000000     0.726510000000    -0.0943494  
C281     C      0.743370000000     0.525540000000     0.725870000000    -0.0334133  
C282     C      0.656770000000     0.582700000000     0.708710000000     0.0768786  
C283     C      0.680060000000     0.565380000000     0.664490000000     0.0911582  
C284     C      0.761310000000     0.507880000000     0.743800000000    -0.0339226  
C285     C      0.684580000000     0.564570000000     0.632330000000     0.0489445  
C286     C      0.769480000000     0.473040000000     0.787620000000     0.0521172  
C287     C      0.695090000000     0.546340000000     0.713230000000     0.054087   
C288     C      0.950120000000     0.442500000000     0.972440000000    -0.0957554  
C289     C      0.032610000000     0.597740000000     0.069090000000     0.0776035  
C290     C      0.061470000000     0.555010000000     0.080160000000     0.0766562  
C291     C      0.014480000000     0.579730000000     0.051760000000    -0.094118   
C292     C      0.989530000000     0.539960000000     0.002910000000    -0.0337868  
C293     C      0.971320000000     0.521850000000     0.985760000000    -0.0335983  
C294     C      0.000840000000     0.529130000000     0.030110000000    -0.00577337 
C295     C      0.043800000000     0.536320000000     0.062970000000    -0.0938687  
C296     C      0.964020000000     0.492450000000     0.995350000000    -0.00600863 
C297     C      0.920320000000     0.485960000000     0.963840000000    -0.0939764  
C298     C      0.975440000000     0.481520000000     0.022440000000    -0.0336607  
C299     C      0.902590000000     0.468050000000     0.946080000000     0.077796   
C300     C      0.932010000000     0.424920000000     0.954390000000     0.0910869  
C301     C      0.993620000000     0.499660000000     0.039650000000    -0.0338083  
C302     C      0.939470000000     0.393220000000     0.950800000000     0.0485842  
C303     C      0.019940000000     0.548610000000     0.048510000000     0.0519647  
C304     C      0.944530000000     0.473350000000     0.977070000000     0.0541586  
H1       H      0.068780000000     0.044510000000     0.601390000000     0.0302517  
H2       H      0.890960000000     0.982450000000     0.423020000000     0.0305621  
H3       H      0.031560000000     0.000720000000     0.516830000000     0.0402255  
H4       H      0.929650000000     0.027780000000     0.505510000000     0.0396622  
H5       H      0.921190000000     0.014090000000     0.453650000000     0.0553338  
H6       H      0.960290000000     0.059190000000     0.537000000000     0.0397218  
H7       H      0.962160000000     0.934400000000     0.489050000000     0.0595291  
H8       H      0.038000000000     0.013270000000     0.570320000000     0.0557747  
H9       H      0.000920000000     0.094450000000     0.532700000000     0.055421   
H10      H      0.001080000000     0.969490000000     0.485110000000     0.0404555  
H11      H      0.031860000000     0.125000000000     0.564330000000     0.0297093  
H12      H      0.822660000000     0.852740000000     0.476330000000     0.0319713  
H13      H      0.642740000000     0.675680000000     0.539520000000     0.03485    
H14      H      0.784020000000     0.768580000000     0.520530000000     0.0408351  
H15      H      0.681850000000     0.758630000000     0.494250000000     0.0406067  
H16      H      0.673580000000     0.705740000000     0.508070000000     0.0569185  
H17      H      0.712810000000     0.789690000000     0.462810000000     0.0400236  
H18      H      0.713590000000     0.743130000000     0.586680000000     0.0599045  
H19      H      0.791990000000     0.821620000000     0.507550000000     0.0562027  
H20      H      0.752500000000     0.785390000000     0.427700000000     0.055647   
H21      H      0.753080000000     0.737500000000     0.551950000000     0.0412631  
H22      H      0.783240000000     0.817270000000     0.397180000000     0.03039    
H23      H      0.148920000000     0.163110000000     0.543000000000     0.0300511  
H24      H      0.310610000000     0.356850000000     0.473640000000     0.0329215  
H25      H      0.186220000000     0.240980000000     0.489050000000     0.0400892  
H26      H      0.280200000000     0.273920000000     0.527930000000     0.039969   
H27      H      0.280530000000     0.326070000000     0.505340000000     0.0566245  
H28      H      0.249210000000     0.243320000000     0.559790000000     0.0394711  
H29      H      0.264470000000     0.265820000000     0.431280000000     0.0598064  
H30      H      0.180730000000     0.191970000000     0.510990000000     0.055309   
H31      H      0.205930000000     0.245670000000     0.587660000000     0.0553593  
H32      H      0.217550000000     0.271000000000     0.457080000000     0.0413765  
H33      H      0.174590000000     0.215610000000     0.619120000000     0.0308857  
H34      H      0.398700000000     0.480530000000     0.407880000000     0.0303047  
H35      H      0.562890000000     0.547780000000     0.598440000000     0.0321106  
H36      H      0.432250000000     0.534350000000     0.489100000000     0.0404891  
H37      H      0.527880000000     0.496710000000     0.518110000000     0.0402162  
H38      H      0.532180000000     0.516480000000     0.568140000000     0.0558134  
H39      H      0.496930000000     0.464700000000     0.487660000000     0.040151   
H40      H      0.506100000000     0.595240000000     0.518010000000     0.0595075  
H41      H      0.429670000000     0.513100000000     0.437480000000     0.0559091  
H42      H      0.451700000000     0.436300000000     0.492990000000     0.0557273  
H43      H      0.462980000000     0.566260000000     0.519970000000     0.0404944  
H44      H      0.420710000000     0.404400000000     0.462840000000     0.0313963  
H45      H      0.775160000000     0.952510000000     0.367730000000     0.0296429  
H46      H      0.689400000000     0.082690000000     0.153160000000     0.031585   
H47      H      0.710480000000     0.977140000000     0.294070000000     0.0401435  
H48      H      0.751610000000     0.054700000000     0.225900000000     0.0398054  
H49      H      0.720450000000     0.051800000000     0.183520000000     0.0552731  
H50      H      0.783170000000     0.023770000000     0.256770000000     0.0400328  
H51      H      0.661360000000     0.058110000000     0.257080000000     0.0597739  
H52      H      0.743580000000     0.983630000000     0.337350000000     0.0558209  
H53      H      0.798690000000     0.969870000000     0.261070000000     0.0553606  
H54      H      0.678860000000     0.007600000000     0.262810000000     0.0405647  
H55      H      0.829840000000     0.938970000000     0.292110000000     0.0298533  
H56      H      0.444430000000     0.341530000000     0.358630000000     0.0301085  
H57      H      0.519310000000     0.182400000000     0.159300000000     0.0314355  
H58      H      0.485060000000     0.259060000000     0.313840000000     0.0404634  
H59      H      0.477080000000     0.265120000000     0.202900000000     0.0399585  
H60      H      0.487110000000     0.211770000000     0.189960000000     0.0560921  
H61      H      0.445180000000     0.295370000000     0.234100000000     0.0399261  
H62      H      0.556570000000     0.236900000000     0.247710000000     0.0602127  
H63      H      0.475970000000     0.311210000000     0.327640000000     0.0554697  
H64      H      0.405600000000     0.290850000000     0.268680000000     0.0563217  
H65      H      0.517050000000     0.229020000000     0.282630000000     0.0417304  
H66      H      0.374810000000     0.321950000000     0.299900000000     0.033297   
H67      H      0.283980000000     0.961140000000     0.871910000000     0.0301764  
H68      H      0.179020000000     0.068490000000     0.654530000000     0.0308429  
H69      H      0.211720000000     0.989000000000     0.808370000000     0.0401845  
H70      H      0.250120000000     0.041980000000     0.718780000000     0.0394679  
H71      H      0.210160000000     0.037470000000     0.684670000000     0.0554045  
H72      H      0.281620000000     0.010380000000     0.749030000000     0.0397838  
H73      H      0.171520000000     0.072970000000     0.764910000000     0.0594309  
H74      H      0.252530000000     0.993240000000     0.842440000000     0.0557314  
H75      H      0.289390000000     0.956820000000     0.761300000000     0.0553566  
H76      H      0.180140000000     0.020470000000     0.778020000000     0.0406258  
H77      H      0.320750000000     0.925370000000     0.791480000000     0.0299785  
H78      H      0.530060000000     0.651210000000     0.700250000000     0.0302225  
H79      H      0.432110000000     0.870090000000     0.815390000000     0.0310565  
H80      H      0.460310000000     0.717920000000     0.728840000000     0.040342   
H81      H      0.501310000000     0.803300000000     0.787260000000     0.0402108  
H82      H      0.462760000000     0.840010000000     0.783750000000     0.0557697  
H83      H      0.532250000000     0.772850000000     0.755250000000     0.0405677  
H84      H      0.420350000000     0.758820000000     0.813410000000     0.0598622  
H85      H      0.499060000000     0.681120000000     0.732340000000     0.0558387  
H86      H      0.541340000000     0.762630000000     0.702210000000     0.0561785  
H87      H      0.429340000000     0.748420000000     0.760790000000     0.0407719  
H88      H      0.572240000000     0.731940000000     0.670740000000     0.0324423  
H89      H      0.563610000000     0.046680000000     0.104470000000     0.0300853  
H90      H      0.403480000000     0.978840000000     0.910270000000     0.0309844  
H91      H      0.532740000000     0.992990000000     0.022010000000     0.0402201  
H92      H      0.439410000000     0.033030000000     0.988230000000     0.0401833  
H93      H      0.434960000000     0.010710000000     0.939190000000     0.0553539  
H94      H      0.470370000000     0.064940000000     0.018800000000     0.0401622  
H95      H      0.458080000000     0.933960000000     0.993790000000     0.06029    
H96      H      0.533450000000     0.014850000000     0.073270000000     0.0561518  
H97      H      0.516670000000     0.091760000000     0.015900000000     0.0553288  
H98      H      0.502030000000     0.961180000000     0.991060000000     0.0405549  
H99      H      0.546850000000     0.122980000000     0.047720000000     0.0295065  
H100     H      0.934530000000     0.875730000000     0.316640000000     0.0306773  
H101     H      0.031040000000     0.656350000000     0.201190000000     0.0314809  
H102     H      0.002690000000     0.806900000000     0.290230000000     0.0405014  
H103     H      0.962140000000     0.724580000000     0.227340000000     0.03979    
H104     H      0.999790000000     0.686420000000     0.232240000000     0.0557321  
H105     H      0.930510000000     0.755420000000     0.258260000000     0.039786   
H106     H      0.045030000000     0.767230000000     0.206470000000     0.0595184  
H107     H      0.965860000000     0.845220000000     0.285550000000     0.0557878  
H108     H      0.918410000000     0.765150000000     0.310450000000     0.0556206  
H109     H      0.034280000000     0.776120000000     0.259260000000     0.0408024  
H110     H      0.887140000000     0.796510000000     0.340870000000     0.0308581  
H111     H      0.181720000000     0.709780000000     0.119060000000     0.0330359  
H112     H      0.281840000000     0.819440000000     0.900270000000     0.0333352  
H113     H      0.250960000000     0.736230000000     0.052390000000     0.0406059  
H114     H      0.210800000000     0.792420000000     0.965610000000     0.0401407  
H115     H      0.250500000000     0.788080000000     0.930030000000     0.0568187  
H116     H      0.179520000000     0.761030000000     0.996430000000     0.040386   
H117     H      0.290220000000     0.821120000000     0.010670000000     0.0604435  
H118     H      0.212500000000     0.741190000000     0.088270000000     0.0568901  
H119     H      0.169540000000     0.708330000000     0.008980000000     0.0556539  
H120     H      0.282150000000     0.767660000000     0.021660000000     0.0420044  
H121     H      0.138740000000     0.677620000000     0.040600000000     0.0301452  
H122     H      0.131680000000     0.591840000000     0.227360000000     0.0302078  
H123     H      0.330050000000     0.442020000000     0.297890000000     0.0316366  
H124     H      0.178260000000     0.508520000000     0.265360000000     0.0402636  
H125     H      0.282710000000     0.524470000000     0.261670000000     0.0397574  
H126     H      0.299780000000     0.473270000000     0.267040000000     0.0556417  
H127     H      0.251790000000     0.555090000000     0.229780000000     0.039982   
H128     H      0.239970000000     0.480750000000     0.339820000000     0.0595617  
H129     H      0.162250000000     0.561750000000     0.259810000000     0.055789   
H130     H      0.220230000000     0.548640000000     0.185810000000     0.055618   
H131     H      0.209150000000     0.477580000000     0.296970000000     0.0407381  
H132     H      0.189280000000     0.579020000000     0.154070000000     0.0300803  
H133     H      0.073180000000     0.234640000000     0.671000000000     0.031211   
H134     H      0.884300000000     0.302680000000     0.833620000000     0.0334219  
H135     H      0.030690000000     0.278890000000     0.752650000000     0.0412448  
H136     H      0.926490000000     0.260930000000     0.751160000000     0.0396013  
H137     H      0.914310000000     0.271330000000     0.802600000000     0.0560156  
H138     H      0.957660000000     0.228440000000     0.721390000000     0.0398322  
H139     H      0.963830000000     0.349780000000     0.778420000000     0.0597177  
H140     H      0.041850000000     0.267690000000     0.699550000000     0.0560604  
H141     H      0.994620000000     0.189200000000     0.729230000000     0.0564167  
H142     H      0.999640000000     0.311130000000     0.782730000000     0.0416506  
H143     H      0.026250000000     0.156840000000     0.700220000000     0.0315674  
H144     H      0.642500000000     0.236720000000     0.100960000000     0.0310301  
H145     H      0.823260000000     0.302310000000     0.927500000000     0.0339534  
H146     H      0.681980000000     0.285750000000     0.019580000000     0.0401444  
H147     H      0.783860000000     0.257940000000     0.009780000000     0.0400089  
H148     H      0.792840000000     0.271570000000     0.958570000000     0.055829   
H149     H      0.752230000000     0.225740000000     0.039250000000     0.0402076  
H150     H      0.752930000000     0.352240000000     0.993190000000     0.0594679  
H151     H      0.673860000000     0.269860000000     0.072450000000     0.056011   
H152     H      0.711440000000     0.191140000000     0.030540000000     0.0554028  
H153     H      0.713470000000     0.317770000000     0.989680000000     0.0404758  
H154     H      0.679900000000     0.158710000000     0.059510000000     0.030524   
H155     H      0.833570000000     0.477420000000     0.822260000000     0.0329754  
H156     H      0.640980000000     0.596400000000     0.720210000000     0.0319359  
H157     H      0.783790000000     0.507120000000     0.738490000000     0.0406996  
H158     H      0.680500000000     0.510840000000     0.761260000000     0.0401394  
H159     H      0.671530000000     0.564940000000     0.750680000000     0.0564459  
H160     H      0.711870000000     0.480260000000     0.792780000000     0.0404787  
H161     H      0.713780000000     0.532800000000     0.671130000000     0.0600171  
H162     H      0.802780000000     0.507030000000     0.789750000000     0.0566762  
H163     H      0.741370000000     0.434170000000     0.790870000000     0.0557075  
H164     H      0.752550000000     0.538390000000     0.707520000000     0.0412388  
H165     H      0.772620000000     0.405300000000     0.823730000000     0.0299377  
H166     H      0.079750000000     0.544670000000     0.090960000000     0.0296463  
H167     H      0.884180000000     0.479080000000     0.936240000000     0.0342348  
H168     H      0.001630000000     0.490780000000     0.060700000000     0.0400219  
H169     H      0.963250000000     0.530750000000     0.964730000000     0.040877   
H170     H      0.914950000000     0.509640000000     0.967270000000     0.0567437  
H171     H      0.995030000000     0.562330000000     0.994630000000     0.0401475  
H172     H      0.968880000000     0.432230000000     0.982390000000     0.0600186  
H173     H      0.049050000000     0.512480000000     0.060760000000     0.0556305  
H174     H      0.996080000000     0.590120000000     0.041340000000     0.0555503  
H175     H      0.969940000000     0.459110000000     0.030630000000     0.0408315  
H176     H      0.027580000000     0.621690000000     0.071140000000     0.0302379  
In1      In     0.856230000000     0.392120000000     0.882950000000     2.42148    
In2      In     0.107140000000     0.638900000000     0.134690000000     2.41141    
In3      In     0.357460000000     0.887700000000     0.883690000000     2.41941    
In4      In     0.607400000000     0.140120000000     0.131700000000     2.41011    
In5      In     0.355420000000     0.386010000000     0.383650000000     2.4116     
In6      In     0.605830000000     0.638530000000     0.630460000000     2.42296    
In7      In     0.856690000000     0.890320000000     0.383170000000     2.41323    
In8      In     0.105490000000     0.138640000000     0.636290000000     2.41395    
N1       N      0.909040000000     0.940080000000     0.437580000000    -0.19531    
N2       N      0.052540000000     0.086940000000     0.585030000000    -0.1959     
N3       N      0.937250000000     0.863970000000     0.460610000000    -0.0927366  
N4       N      0.660130000000     0.691420000000     0.581410000000    -0.193722   
N5       N      0.805120000000     0.837230000000     0.434570000000    -0.194927   
N6       N      0.687560000000     0.715930000000     0.656590000000    -0.0919866  
N7       N      0.305140000000     0.329630000000     0.433960000000    -0.195088   
N8       N      0.159480000000     0.187320000000     0.583300000000    -0.195494   
N9       N      0.298470000000     0.285220000000     0.362540000000    -0.0915507  
N10      N      0.552280000000     0.589780000000     0.576500000000    -0.194698   
N11      N      0.407510000000     0.440190000000     0.433250000000    -0.194602   
N12      N      0.537020000000     0.665130000000     0.540920000000    -0.0920926  
N13      N      0.657040000000     0.088020000000     0.186880000000    -0.194294   
N14      N      0.804700000000     0.943520000000     0.332080000000    -0.196376   
N15      N      0.598860000000     0.101160000000     0.242860000000    -0.0905587  
N16      N      0.556650000000     0.192160000000     0.185490000000    -0.193487   
N17      N      0.407420000000     0.333910000000     0.331450000000    -0.19511    
N18      N      0.623960000000     0.205960000000     0.228460000000    -0.0908957  
N19      N      0.156810000000     0.088600000000     0.691780000000    -0.195829   
N20      N      0.304590000000     0.941020000000     0.833810000000    -0.196258   
N21      N      0.115730000000     0.126250000000     0.753500000000    -0.0920066  
N22      N      0.408080000000     0.832370000000     0.832630000000    -0.195277   
N23      N      0.553350000000     0.689430000000     0.683270000000    -0.195674   
N24      N      0.363970000000     0.769790000000     0.865490000000    -0.090723   
N25      N      0.412600000000     0.937800000000     0.934590000000    -0.1941     
N26      N      0.557340000000     0.087060000000     0.078340000000    -0.196751   
N27      N      0.424770000000     0.864200000000     0.974770000000    -0.0874358  
N28      N      0.056450000000     0.693900000000     0.185870000000    -0.194816   
N29      N      0.908640000000     0.838300000000     0.330950000000    -0.195421   
N30      N      0.103140000000     0.756170000000     0.156580000000    -0.0916391  
N31      N      0.304550000000     0.838310000000     0.937810000000    -0.19365    
N32      N      0.158090000000     0.691450000000     0.082030000000    -0.194923   
N33      N      0.346550000000     0.873850000000     0.000100000000    -0.0871595  
N34      N      0.302670000000     0.442450000000     0.336580000000    -0.194984   
N35      N      0.158310000000     0.587570000000     0.188450000000    -0.196114   
N36      N      0.258550000000     0.441360000000     0.406630000000    -0.0922652  
N37      N      0.906710000000     0.344340000000     0.824910000000    -0.194029   
N38      N      0.051960000000     0.193430000000     0.683620000000    -0.194734   
N39      N      0.941890000000     0.419430000000     0.811420000000    -0.0915637  
N40      N      0.805650000000     0.345140000000     0.941410000000    -0.193729   
N41      N      0.659010000000     0.195400000000     0.082300000000    -0.195617   
N42      N      0.778930000000     0.422000000000     0.963770000000    -0.0923232  
N43      N      0.659460000000     0.583330000000     0.677960000000    -0.195149   
N44      N      0.805240000000     0.439340000000     0.825390000000    -0.195755   
N45      N      0.688940000000     0.563730000000     0.602230000000    -0.0922922  
N46      N      0.908360000000     0.437880000000     0.940920000000    -0.194515   
N47      N      0.055860000000     0.585430000000     0.083180000000    -0.196177   
N48      N      0.946570000000     0.363540000000     0.947530000000    -0.0919832  
O1       O      0.821470000000     0.389700000000     0.918780000000    -0.495991   
O2       O      0.841440000000     0.348630000000     0.905830000000    -0.491982   
O3       O      0.845900000000     0.433360000000     0.853840000000    -0.496957   
O4       O      0.869060000000     0.434040000000     0.909790000000    -0.497122   
O5       O      0.868750000000     0.348960000000     0.857780000000    -0.492435   
O6       O      0.894390000000     0.394660000000     0.914720000000    -0.499299   
O7       O      0.816110000000     0.397200000000     0.854140000000    -0.506584   
O8       O      0.893180000000     0.388470000000     0.849780000000    -0.496074   
O9       O      0.146500000000     0.609620000000     0.143070000000    -0.50145    
O10      O      0.118410000000     0.616890000000     0.179680000000    -0.502448   
O11      O      0.121460000000     0.657140000000     0.089040000000    -0.501959   
O12      O      0.069050000000     0.631510000000     0.103700000000    -0.501439   
O13      O      0.070190000000     0.647040000000     0.167100000000    -0.497062   
O14      O      0.094710000000     0.593220000000     0.114050000000    -0.505974   
O15      O      0.143210000000     0.672840000000     0.127910000000    -0.4938     
O16      O      0.094030000000     0.685220000000     0.153040000000    -0.495036   
O17      O      0.322240000000     0.923230000000     0.878950000000    -0.503243   
O18      O      0.340130000000     0.905160000000     0.838980000000    -0.506704   
O19      O      0.391410000000     0.892470000000     0.919920000000    -0.489079   
O20      O      0.341400000000     0.872470000000     0.929530000000    -0.489679   
O21      O      0.393970000000     0.879360000000     0.850730000000    -0.503992   
O22      O      0.320620000000     0.854580000000     0.891250000000    -0.495365   
O23      O      0.378620000000     0.932430000000     0.897210000000    -0.502621   
O24      O      0.371140000000     0.841130000000     0.866270000000    -0.49549    
O25      O      0.564350000000     0.159910000000     0.145140000000    -0.501947   
O26      O      0.600390000000     0.172270000000     0.171050000000    -0.484642   
O27      O      0.578900000000     0.132520000000     0.090730000000    -0.504122   
O28      O      0.641670000000     0.148360000000     0.096160000000    -0.496992   
O29      O      0.615590000000     0.114350000000     0.175350000000    -0.489087   
O30      O      0.624000000000     0.186930000000     0.117740000000    -0.500768   
O31      O      0.586240000000     0.094980000000     0.119570000000    -0.50792    
O32      O      0.648060000000     0.113740000000     0.142480000000    -0.497755   
O33      O      0.376280000000     0.431680000000     0.394040000000    -0.502387   
O34      O      0.386330000000     0.394180000000     0.422250000000    -0.490221   
O35      O      0.344030000000     0.414390000000     0.342460000000    -0.499259   
O36      O      0.363950000000     0.355500000000     0.343000000000    -0.489119   
O37      O      0.332960000000     0.372510000000     0.427210000000    -0.496722   
O38      O      0.398420000000     0.364600000000     0.372410000000    -0.503331   
O39      O      0.314880000000     0.414090000000     0.378710000000    -0.500057   
O40      O      0.328440000000     0.343260000000     0.389920000000    -0.498374   
O41      O      0.585860000000     0.594190000000     0.614330000000    -0.503551   
O42      O      0.572470000000     0.634890000000     0.593370000000    -0.49317    
O43      O      0.569320000000     0.643770000000     0.664030000000    -0.503288   
O44      O      0.623170000000     0.618770000000     0.674260000000    -0.504134   
O45      O      0.623610000000     0.656400000000     0.586160000000    -0.494999   
O46      O      0.641610000000     0.603630000000     0.633600000000    -0.49712    
O47      O      0.590050000000     0.683860000000     0.649210000000    -0.499561   
O48      O      0.641870000000     0.673010000000     0.626410000000    -0.492469   
O49      O      0.872470000000     0.935230000000     0.402960000000    -0.50544    
O50      O      0.892650000000     0.894760000000     0.417190000000    -0.49467    
O51      O      0.844100000000     0.912930000000     0.338900000000    -0.505017   
O52      O      0.894260000000     0.884060000000     0.351230000000    -0.499587   
O53      O      0.840800000000     0.872730000000     0.428300000000    -0.499663   
O54      O      0.870500000000     0.844840000000     0.363060000000    -0.498594   
O55      O      0.817830000000     0.920960000000     0.376830000000    -0.503539   
O56      O      0.821340000000     0.855140000000     0.388860000000    -0.495264   
O57      O      0.139440000000     0.175090000000     0.629110000000    -0.496712   
O58      O      0.125360000000     0.150370000000     0.590940000000    -0.502603   
O59      O      0.120250000000     0.122980000000     0.682730000000    -0.498242   
O60      O      0.067510000000     0.146420000000     0.667370000000    -0.497921   
O61      O      0.070190000000     0.133000000000     0.601490000000    -0.50172    
O62      O      0.090170000000     0.185190000000     0.652020000000    -0.497199   
O63      O      0.141510000000     0.104840000000     0.644990000000    -0.504571   
O64      O      0.087940000000     0.093000000000     0.620540000000    -0.503578   


