data_structure

_audit_creation_method RASPA-1.0
_audit_creation_date 2023-6-5
_audit_author_name 'Poobodin Mano'

_cell_length_a    56.0395
_cell_length_b    56.307
_cell_length_c    30.5882
_cell_angle_alpha 89.7748
_cell_angle_beta  90.2253
_cell_angle_gamma 89.9997
_cell_volume      96517

_symmetry_cell_setting          triclinic
_symmetry_space_group_name_Hall 'P 1'
_symmetry_space_group_name_H-M  'P 1'
_symmetry_Int_Tables_number     1

_symmetry_equiv_pos_as_xyz 'x,y,z'

loop_
_atom_site_label
_atom_site_type_symbol
_atom_site_fract_x
_atom_site_fract_y
_atom_site_fract_z
_atom_site_charge
C1       C      0.326120000000     0.378690000000     0.989410000000     0.416301   
C2       C      0.314420000000     0.307000000000     0.914990000000     0.41915    
C3       C      0.380660000000     0.326290000000     0.972430000000     0.424635   
C4       C      0.311970000000     0.311530000000     0.055000000000     0.413761   
C5       C      0.324470000000     0.629690000000     0.005690000000     0.420954   
C6       C      0.306450000000     0.702900000000     0.068670000000     0.412207   
C7       C      0.375260000000     0.683710000000     0.003820000000     0.420232   
C8       C      0.302350000000     0.697590000000     0.936440000000     0.414126   
C9       C      0.632930000000     0.322140000000     0.984150000000     0.41252    
C10      C      0.703430000000     0.302440000000     0.924410000000     0.415513   
C11      C      0.684770000000     0.372980000000     0.993090000000     0.415044   
C12      C      0.701680000000     0.304520000000     0.060790000000     0.411441   
C13      C      0.681840000000     0.624110000000     0.986680000000     0.416013   
C14      C      0.696680000000     0.691790000000     0.915260000000     0.420056   
C15      C      0.627500000000     0.675120000000     0.989200000000     0.415464   
C16      C      0.698550000000     0.697090000000     0.048430000000     0.419027   
C17      C      0.822030000000     0.123390000000     0.496220000000     0.425066   
C18      C      0.812030000000     0.187040000000     0.567120000000     0.423436   
C19      C      0.880190000000     0.175880000000     0.489250000000     0.419198   
C20      C      0.813350000000     0.194660000000     0.424020000000     0.403005   
C21      C      0.875700000000     0.817520000000     0.494420000000     0.417008   
C22      C      0.805150000000     0.802520000000     0.550870000000     0.418888   
C23      C      0.822880000000     0.873130000000     0.483740000000     0.417657   
C24      C      0.808000000000     0.807900000000     0.411530000000     0.412691   
C25      C      0.127270000000     0.823180000000     0.508640000000     0.417976   
C26      C      0.198490000000     0.814280000000     0.429640000000     0.418692   
C27      C      0.183050000000     0.877780000000     0.488460000000     0.414724   
C28      C      0.192230000000     0.808100000000     0.571800000000     0.409048   
C29      C      0.132030000000     0.182700000000     0.479920000000     0.420738   
C30      C      0.202150000000     0.196640000000     0.553260000000     0.414789   
C31      C      0.183070000000     0.128920000000     0.482670000000     0.410507   
C32      C      0.203550000000     0.200810000000     0.419640000000     0.419965   
C33      C      0.181250000000     0.938980000000     0.444670000000    -0.0772875  
C34      C      0.189810000000     0.092360000000     0.519780000000     0.0772134  
C35      C      0.179960000000     0.092440000000     0.444310000000     0.077457   
C36      C      0.190950000000     0.067570000000     0.520000000000    -0.0931975  
C37      C      0.205240000000     0.016110000000     0.503080000000    -0.0325182  
C38      C      0.205720000000     0.991280000000     0.503010000000    -0.0336978  
C39      C      0.186910000000     0.028530000000     0.481360000000    -0.00530774 
C40      C      0.180780000000     0.067650000000     0.443420000000    -0.0928904  
C41      C      0.187790000000     0.978280000000     0.481430000000    -0.00221646 
C42      C      0.194850000000     0.939190000000     0.519170000000    -0.088832   
C43      C      0.169440000000     0.990760000000     0.459790000000    -0.0335567  
C44      C      0.193940000000     0.914450000000     0.519470000000     0.0753064  
C45      C      0.180660000000     0.914040000000     0.445460000000     0.0549763  
C46      C      0.169060000000     0.015570000000     0.459640000000    -0.0322484  
C47      C      0.186290000000     0.054900000000     0.481570000000     0.0526821  
C48      C      0.188000000000     0.951820000000     0.481790000000     0.0479895  
C49      C      0.937370000000     0.794420000000     0.483250000000    -0.0779416  
C50      C      0.089310000000     0.836000000000     0.533400000000     0.0783166  
C51      C      0.092490000000     0.801110000000     0.490650000000     0.079089   
C52      C      0.064510000000     0.833680000000     0.534530000000    -0.0931402  
C53      C      0.013360000000     0.817870000000     0.549140000000    -0.032363   
C54      C      0.988440000000     0.817160000000     0.547490000000    -0.0338073  
C55      C      0.026940000000     0.812790000000     0.511790000000    -0.00518392 
C56      C      0.067730000000     0.798260000000     0.491060000000    -0.0928842  
C57      C      0.976530000000     0.811340000000     0.508430000000    -0.00224389 
C58      C      0.937280000000     0.830170000000     0.525590000000    -0.089617   
C59      C      0.990110000000     0.805810000000     0.471310000000    -0.0334743  
C60      C      0.912560000000     0.831080000000     0.521530000000     0.0743657  
C61      C      0.912340000000     0.795480000000     0.479710000000     0.0546681  
C62      C      0.015020000000     0.806530000000     0.472960000000    -0.0315974  
C63      C      0.053380000000     0.814780000000     0.512820000000     0.0533783  
C64      C      0.950030000000     0.811870000000     0.505960000000     0.0484147  
C65      C      0.819520000000     0.060420000000     0.530570000000    -0.0771069  
C66      C      0.817710000000     0.909410000000     0.444810000000     0.0793307  
C67      C      0.820780000000     0.909570000000     0.522140000000     0.0821288  
C68      C      0.815420000000     0.934130000000     0.444180000000    -0.0924431  
C69      C      0.825660000000     0.986950000000     0.451350000000    -0.0315531  
C70      C      0.825110000000     0.011750000000     0.453010000000    -0.0335569  
C71      C      0.814250000000     0.973270000000     0.483670000000    -0.00474987 
C72      C      0.818690000000     0.934240000000     0.522710000000    -0.0924167  
C73      C      0.813280000000     0.023400000000     0.487190000000    -0.0016283  
C74      C      0.809980000000     0.064030000000     0.454280000000    -0.0884637  
C75      C      0.801430000000     0.009790000000     0.518950000000    -0.0332782  
C76      C      0.811850000000     0.088620000000     0.457940000000     0.0779424  
C77      C      0.821280000000     0.085230000000     0.533740000000     0.0586598  
C78      C      0.801810000000     0.985020000000     0.517120000000    -0.0308548  
C79      C      0.815980000000     0.946900000000     0.483450000000     0.054326   
C80      C      0.814140000000     0.049650000000     0.490690000000     0.0495946  
C81      C      0.069960000000     0.191390000000     0.440740000000    -0.0782051  
C82      C      0.915040000000     0.199830000000     0.495100000000     0.0804233  
C83      C      0.918360000000     0.158990000000     0.477430000000     0.0818278  
C84      C      0.939850000000     0.202370000000     0.493460000000    -0.0925374  
C85      C      0.993200000000     0.197120000000     0.514030000000    -0.0319021  
C86      C      0.018140000000     0.198030000000     0.513260000000    -0.0330713  
C87      C      0.980560000000     0.184890000000     0.481340000000    -0.00476183 
C88      C      0.943130000000     0.160930000000     0.475170000000    -0.0926181  
C89      C      0.030920000000     0.186930000000     0.479560000000    -0.00229905 
C90      C      0.070300000000     0.182590000000     0.517510000000    -0.0895904  
C91      C      0.018230000000     0.175100000000     0.446440000000    -0.0331216  
C92      C      0.095120000000     0.181670000000     0.516340000000     0.075887   
C93      C      0.095040000000     0.190770000000     0.440200000000     0.0565575  
C94      C      0.993340000000     0.174040000000     0.447390000000    -0.0315878  
C95      C      0.954180000000     0.182770000000     0.483260000000     0.0545827  
C96      C      0.057410000000     0.187130000000     0.479350000000     0.0493533  
C97      C      0.760190000000     0.785010000000     0.633130000000    -0.0771315  
C98      C      0.730100000000     0.695470000000     0.868200000000     0.0852722  
C99      C      0.695240000000     0.718290000000     0.854780000000     0.0854028  
C100     C      0.741190000000     0.705510000000     0.831740000000    -0.0913582  
C101     C      0.764620000000     0.740070000000     0.768440000000    -0.0308923  
C102     C      0.775190000000     0.750900000000     0.732150000000    -0.0328927  
C103     C      0.740480000000     0.733260000000     0.767270000000    -0.00406325 
C104     C      0.705790000000     0.728690000000     0.818150000000    -0.0915299  
C105     C      0.761830000000     0.755190000000     0.693950000000    -0.00129322 
C106     C      0.795650000000     0.761560000000     0.641890000000    -0.0883987  
C107     C      0.737800000000     0.748080000000     0.692570000000    -0.0330053  
C108     C      0.805610000000     0.773360000000     0.606230000000     0.0752899  
C109     C      0.770360000000     0.796550000000     0.596950000000     0.0561809  
C110     C      0.727250000000     0.737240000000     0.728800000000    -0.0303726  
C111     C      0.729030000000     0.722330000000     0.806170000000     0.0564145  
C112     C      0.772760000000     0.767430000000     0.655890000000     0.0489352  
C113     C      0.719500000000     0.745660000000     0.120240000000    -0.0778934  
C114     C      0.811040000000     0.795380000000     0.337630000000     0.0811595  
C115     C      0.774240000000     0.791830000000     0.375140000000     0.0795763  
C116     C      0.800960000000     0.785250000000     0.300240000000    -0.0917014  
C117     C      0.778420000000     0.749800000000     0.237370000000    -0.0321284  
C118     C      0.767760000000     0.738740000000     0.201430000000    -0.0329259  
C119     C      0.765950000000     0.767060000000     0.261250000000    -0.00441372 
C120     C      0.763580000000     0.781760000000     0.338330000000    -0.0919375  
C121     C      0.744420000000     0.744760000000     0.188470000000    -0.00234498 
C122     C      0.735220000000     0.708300000000     0.144970000000    -0.0895553  
C123     C      0.732060000000     0.762210000000     0.212070000000    -0.0329418  
C124     C      0.723850000000     0.697220000000     0.110010000000     0.0758355  
C125     C      0.708440000000     0.734260000000     0.084730000000     0.0551427  
C126     C      0.742690000000     0.773210000000     0.248080000000    -0.0318199  
C127     C      0.776960000000     0.778250000000     0.300320000000     0.0539519  
C128     C      0.732900000000     0.732740000000     0.150740000000     0.0490132  
C129     C      0.767910000000     0.205030000000     0.650660000000    -0.0783908  
C130     C      0.738620000000     0.294620000000     0.883870000000     0.077777   
C131     C      0.702600000000     0.274710000000     0.866180000000     0.0781023  
C132     C      0.750590000000     0.282570000000     0.850680000000    -0.0932322  
C133     C      0.767580000000     0.265030000000     0.762450000000    -0.0319496  
C134     C      0.778410000000     0.253230000000     0.727640000000    -0.0334961  
C135     C      0.750550000000     0.253410000000     0.788590000000    -0.0051258  
C136     C      0.713950000000     0.262450000000     0.832590000000    -0.0931124  
C137     C      0.772340000000     0.229610000000     0.718030000000    -0.00220475 
C138     C      0.806850000000     0.219300000000     0.669950000000    -0.0892933  
C139     C      0.755680000000     0.217840000000     0.744580000000    -0.0333047  
C140     C      0.815920000000     0.208590000000     0.632560000000     0.0780991  
C141     C      0.777230000000     0.194620000000     0.612710000000     0.059412   
C142     C      0.744970000000     0.229570000000     0.779540000000    -0.0314267  
C143     C      0.738270000000     0.266240000000     0.824490000000     0.053201   
C144     C      0.782600000000     0.217610000000     0.679310000000     0.0502451  
C145     C      0.799740000000     0.210150000000     0.310630000000    -0.0760876  
C146     C      0.730780000000     0.305400000000     0.117340000000     0.0778402  
C147     C      0.705680000000     0.271760000000     0.109510000000     0.0773316  
C148     C      0.742390000000     0.294800000000     0.152830000000    -0.0933833  
C149     C      0.753950000000     0.274090000000     0.241930000000    -0.032093   
C150     C      0.765250000000     0.263370000000     0.277660000000    -0.0338161  
C151     C      0.747620000000     0.260670000000     0.205000000000    -0.00526131 
C152     C      0.716890000000     0.260640000000     0.144950000000    -0.0930424  
C153     C      0.770470000000     0.238940000000     0.277410000000    -0.00147999 
C154     C      0.775310000000     0.233850000000     0.358430000000    -0.0877834  
C155     C      0.764250000000     0.225530000000     0.240400000000    -0.0335047  
C156     C      0.786160000000     0.222970000000     0.394410000000     0.0786482  
C157     C      0.810220000000     0.199630000000     0.347520000000     0.0552475  
C158     C      0.752940000000     0.236270000000     0.204620000000    -0.0320048  
C159     C      0.735510000000     0.272140000000     0.167090000000     0.0529425  
C160     C      0.782010000000     0.227500000000     0.315920000000     0.0474188  
C161     C      0.693340000000     0.562020000000     0.953530000000    -0.0770231  
C162     C      0.678990000000     0.409370000000     0.030590000000     0.0782552  
C163     C      0.694140000000     0.409580000000     0.958310000000     0.0784599  
C164     C      0.679550000000     0.434160000000     0.031700000000    -0.093754   
C165     C      0.668560000000     0.486090000000     0.013830000000    -0.0322298  
C166     C      0.668370000000     0.510910000000     0.012980000000    -0.0341004  
C167     C      0.687570000000     0.473380000000     0.995270000000    -0.00566771 
C168     C      0.694930000000     0.434360000000     0.958290000000    -0.0934139  
C169     C      0.687160000000     0.523580000000     0.993490000000    -0.00206812 
C170     C      0.679400000000     0.563200000000     0.027550000000    -0.0896493  
C171     C      0.706280000000     0.510890000000     0.975310000000    -0.0341079  
C172     C      0.678590000000     0.587880000000     0.024860000000     0.0743609  
C173     C      0.692670000000     0.586940000000     0.951490000000     0.0545182  
C174     C      0.706490000000     0.486080000000     0.976200000000    -0.0315238  
C175     C      0.687460000000     0.446980000000     0.995180000000     0.0532901  
C176     C      0.686620000000     0.549950000000     0.991530000000     0.047875   
C177     C      0.253600000000     0.719870000000     0.865240000000    -0.0764273  
C178     C      0.205380000000     0.772690000000     0.606890000000     0.077618   
C179     C      0.207210000000     0.809400000000     0.644520000000     0.0773143  
C180     C      0.215410000000     0.760920000000     0.642820000000    -0.0930987  
C181     C      0.250920000000     0.744850000000     0.712720000000    -0.0320825  
C182     C      0.261900000000     0.733970000000     0.748700000000    -0.0338795  
C183     C      0.232620000000     0.761590000000     0.718710000000    -0.00541862 
C184     C      0.217120000000     0.798170000000     0.681140000000    -0.093034   
C185     C      0.254700000000     0.739450000000     0.791450000000    -0.00187109 
C186     C      0.291560000000     0.726630000000     0.831390000000    -0.0891562  
C187     C      0.236200000000     0.755970000000     0.797430000000    -0.0338576  
C188     C      0.302700000000     0.716580000000     0.867800000000     0.0753409  
C189     C      0.265120000000     0.709890000000     0.901880000000     0.0544685  
C190     C      0.225340000000     0.766980000000     0.761460000000    -0.0315888  
C191     C      0.221470000000     0.773680000000     0.680500000000     0.0530569  
C192     C      0.266760000000     0.728330000000     0.829720000000     0.0480544  
C193     C      0.272740000000     0.714130000000     0.168340000000    -0.076088   
C194     C      0.198290000000     0.802840000000     0.355040000000     0.0838855  
C195     C      0.233580000000     0.798480000000     0.397400000000     0.0811649  
C196     C      0.209610000000     0.793070000000     0.318730000000    -0.0921668  
C197     C      0.243330000000     0.783830000000     0.242250000000    -0.0313577  
C198     C      0.253830000000     0.772530000000     0.206540000000    -0.0325003  
C199     C      0.245170000000     0.773950000000     0.284390000000    -0.00466955 
C200     C      0.245360000000     0.788330000000     0.361880000000    -0.0929175  
C201     C      0.266080000000     0.750960000000     0.212200000000    -0.00122536 
C202     C      0.290080000000     0.750930000000     0.143210000000    -0.0880654  
C203     C      0.268030000000     0.741150000000     0.254380000000    -0.0326715  
C204     C      0.299910000000     0.738860000000     0.107740000000     0.0842778  
C205     C      0.282560000000     0.702740000000     0.132110000000     0.061993   
C206     C      0.257810000000     0.752610000000     0.290160000000    -0.0313317  
C207     C      0.233320000000     0.785450000000     0.322040000000     0.0552646  
C208     C      0.276490000000     0.738520000000     0.174150000000     0.0506692  
C209     C      0.438110000000     0.690600000000     0.039660000000    -0.0775208  
C210     C      0.589730000000     0.673360000000     0.953870000000     0.0794864  
C211     C      0.592060000000     0.681990000000     0.029590000000     0.0797851  
C212     C      0.564880000000     0.674980000000     0.954990000000    -0.0924428  
C213     C      0.513880000000     0.692710000000     0.962180000000    -0.0316948  
C214     C      0.488990000000     0.693950000000     0.963740000000    -0.033169   
C215     C      0.526840000000     0.681780000000     0.996200000000    -0.00479869 
C216     C      0.567230000000     0.683730000000     0.031890000000    -0.0925821  
C217     C      0.476470000000     0.684290000000     0.999360000000    -0.00181831 
C218     C      0.436380000000     0.680750000000     0.963520000000    -0.089034   
C219     C      0.489420000000     0.673440000000     0.033450000000    -0.0330661  
C220     C      0.411570000000     0.680950000000     0.965780000000     0.0769915  
C221     C      0.413050000000     0.690960000000     0.041340000000     0.0579875  
C222     C      0.514310000000     0.672200000000     0.031880000000    -0.0311948  
C223     C      0.553300000000     0.680200000000     0.994330000000     0.0539056  
C224     C      0.449970000000     0.685280000000     0.000820000000     0.0499426  
C225     C      0.304590000000     0.264550000000     0.824190000000    -0.077079   
C226     C      0.202530000000     0.225070000000     0.610370000000     0.0818607  
C227     C      0.235480000000     0.199130000000     0.601330000000     0.0792046  
C228     C      0.213770000000     0.235920000000     0.645870000000    -0.0924057  
C229     C      0.248460000000     0.264400000000     0.701590000000    -0.0318712  
C230     C      0.259710000000     0.275180000000     0.737180000000    -0.0327464  
C231     C      0.248540000000     0.239570000000     0.697190000000    -0.00482932 
C232     C      0.247160000000     0.209480000000     0.636920000000    -0.0929433  
C233     C      0.271200000000     0.261380000000     0.769410000000    -0.00180467 
C234     C      0.272340000000     0.292430000000     0.827810000000    -0.0890644  
C235     C      0.271330000000     0.236530000000     0.764900000000    -0.0332441  
C236     C      0.283500000000     0.303190000000     0.863300000000     0.077476   
C237     C      0.315630000000     0.275560000000     0.860210000000     0.0565339  
C238     C      0.260190000000     0.225750000000     0.729120000000    -0.0317355  
C239     C      0.236350000000     0.228160000000     0.659550000000     0.0541002  
C240     C      0.282850000000     0.272910000000     0.807660000000     0.0493963  
C241     C      0.225400000000     0.248240000000     0.346010000000    -0.0760333  
C242     C      0.278380000000     0.293440000000     0.088580000000     0.0778768  
C243     C      0.314230000000     0.298600000000     0.128910000000     0.0787961  
C244     C      0.267580000000     0.282580000000     0.124570000000    -0.0930578  
C245     C      0.255360000000     0.247540000000     0.197310000000    -0.0316258  
C246     C      0.244970000000     0.236600000000     0.233650000000    -0.0332031  
C247     C      0.269220000000     0.268170000000     0.202250000000    -0.00524309 
C248     C      0.303930000000     0.287970000000     0.165600000000    -0.0931501  
C249     C      0.248060000000     0.246150000000     0.275670000000    -0.00142933 
C250     C      0.237700000000     0.210070000000     0.319730000000    -0.0888487  
C251     C      0.261890000000     0.266800000000     0.280600000000    -0.0336355  
C252     C      0.226930000000     0.199550000000     0.355930000000     0.0775223  
C253     C      0.214800000000     0.237370000000     0.382510000000     0.0584646  
C254     C      0.272410000000     0.277650000000     0.244310000000    -0.0311409  
C255     C      0.280370000000     0.279730000000     0.163680000000     0.0536707  
C256     C      0.236840000000     0.234650000000     0.314230000000     0.0495222  
C257     C      0.443110000000     0.335200000000     0.937090000000    -0.0773863  
C258     C      0.595530000000     0.310310000000     0.013490000000     0.0777126  
C259     C      0.597050000000     0.331390000000     0.946260000000     0.0784159  
C260     C      0.570620000000     0.309660000000     0.011380000000    -0.0932173  
C261     C      0.519030000000     0.299990000000     0.983200000000    -0.0320696  
C262     C      0.494100000000     0.300290000000     0.981150000000    -0.0329358  
C263     C      0.532220000000     0.320620000000     0.974040000000    -0.00526429 
C264     C      0.572190000000     0.331270000000     0.943330000000    -0.0936077  
C265     C      0.481790000000     0.321300000000     0.970280000000    -0.00181843 
C266     C      0.441750000000     0.309100000000     0.999190000000    -0.0885639  
C267     C      0.495060000000     0.341940000000     0.961290000000    -0.0332454  
C268     C      0.416940000000     0.310450000000     0.998300000000     0.079441   
C269     C      0.418050000000     0.336300000000     0.936550000000     0.0591265  
C270     C      0.519970000000     0.341580000000     0.962950000000    -0.0319325  
C271     C      0.558670000000     0.320400000000     0.976190000000     0.053321   
C272     C      0.455220000000     0.321820000000     0.968800000000     0.0499395  
C273     C      0.330220000000     0.566640000000     0.039220000000    -0.0774137  
C274     C      0.315890000000     0.415440000000     0.955890000000     0.0808479  
C275     C      0.329130000000     0.414590000000     0.029580000000     0.0788193  
C276     C      0.314040000000     0.440170000000     0.957140000000    -0.0920005  
C277     C      0.326500000000     0.492470000000     0.960370000000    -0.0316493  
C278     C      0.326470000000     0.517270000000     0.962080000000    -0.0331883  
C279     C      0.319310000000     0.478900000000     0.996730000000    -0.00465122 
C280     C      0.327600000000     0.439310000000     0.031930000000    -0.0925634  
C281     C      0.319410000000     0.529090000000     0.000250000000    -0.00164584 
C282     C      0.312430000000     0.569440000000     0.967930000000    -0.0885598  
C283     C      0.311990000000     0.515590000000     0.036460000000    -0.0331064  
C284     C      0.314130000000     0.594080000000     0.970310000000     0.0774152  
C285     C      0.332230000000     0.591510000000     0.040790000000     0.0563411  
C286     C      0.311880000000     0.490790000000     0.034690000000    -0.0312038  
C287     C      0.320150000000     0.452480000000     0.995350000000     0.0537511  
C288     C      0.320440000000     0.555420000000     0.002650000000     0.0496159  
H1       H      0.175660000000     0.101670000000     0.414110000000     0.0338453  
H2       H      0.198710000000     0.905600000000     0.549830000000     0.0343682  
H3       H      0.154500000000     0.024610000000     0.443170000000     0.0418231  
H4       H      0.220310000000     0.982290000000     0.519430000000     0.0422936  
H5       H      0.200180000000     0.948340000000     0.548710000000     0.0559489  
H6       H      0.219420000000     0.025610000000     0.519640000000     0.0416996  
H7       H      0.176840000000     0.948450000000     0.414850000000     0.0645975  
H8       H      0.177330000000     0.058550000000     0.412910000000     0.0583086  
H9       H      0.195040000000     0.058390000000     0.550300000000     0.05677    
H10      H      0.155090000000     0.981360000000     0.443530000000     0.0426955  
H11      H      0.193340000000     0.101520000000     0.550240000000     0.0315787  
H12      H      0.136360000000     0.902500000000     0.397340000000     0.14928    
H13      H      0.102970000000     0.788070000000     0.473130000000     0.0332217  
H14      H      0.903730000000     0.845970000000     0.536990000000     0.0340591  
H15      H      0.024930000000     0.802850000000     0.443420000000     0.0429747  
H16      H      0.978500000000     0.821150000000     0.576850000000     0.042517   
H17      H      0.946370000000     0.844180000000     0.543190000000     0.0562398  
H18      H      0.021990000000     0.822380000000     0.579750000000     0.0412634  
H19      H      0.947090000000     0.779890000000     0.468640000000     0.0666507  
H20      H      0.059900000000     0.783200000000     0.474400000000     0.058677   
H21      H      0.054110000000     0.847010000000     0.551370000000     0.0567533  
H22      H      0.981480000000     0.801600000000     0.440560000000     0.0439361  
H23      H      0.097210000000     0.851060000000     0.550030000000     0.0306224  
H24      H      0.898090000000     0.788830000000     0.387880000000     0.14852    
H25      H      0.822970000000     0.900490000000     0.553230000000     0.0367697  
H26      H      0.808880000000     0.098930000000     0.428380000000     0.039984   
H27      H      0.792390000000     0.975070000000     0.542020000000     0.044399   
H28      H      0.834590000000     0.021820000000     0.428330000000     0.0438959  
H29      H      0.805400000000     0.056330000000     0.422950000000     0.0591237  
H30      H      0.835670000000     0.978540000000     0.425460000000     0.0416257  
H31      H      0.822680000000     0.049380000000     0.559070000000     0.0679289  
H32      H      0.819660000000     0.943330000000     0.553800000000     0.0597998  
H33      H      0.813050000000     0.943120000000     0.413100000000     0.0578266  
H34      H      0.791870000000     0.018320000000     0.545300000000     0.0464608  
H35      H      0.817240000000     0.900150000000     0.413790000000     0.031785   
H36      H      0.790870000000     0.110860000000     0.597450000000     0.153822   
H37      H      0.910520000000     0.141720000000     0.471140000000     0.0360469  
H38      H      0.104140000000     0.177590000000     0.546900000000     0.0342235  
H39      H      0.984080000000     0.164690000000     0.421510000000     0.0437084  
H40      H      0.027430000000     0.207450000000     0.539020000000     0.0436741  
H41      H      0.061250000000     0.179080000000     0.548100000000     0.0569733  
H42      H      0.983840000000     0.205510000000     0.540760000000     0.0425603  
H43      H      0.060070000000     0.195450000000     0.411180000000     0.0675165  
H44      H      0.953570000000     0.145270000000     0.467760000000     0.0591632  
H45      H      0.947720000000     0.219610000000     0.499620000000     0.0589172  
H46      H      0.027570000000     0.166210000000     0.420250000000     0.0438275  
H47      H      0.904480000000     0.215370000000     0.502910000000     0.0326268  
H48      H      0.110390000000     0.162030000000     0.365120000000     0.148907   
H49      H      0.677250000000     0.723730000000     0.863050000000     0.037896   
H50      H      0.823580000000     0.768290000000     0.597100000000     0.0371003  
H51      H      0.708750000000     0.731800000000     0.726520000000     0.0443035  
H52      H      0.793670000000     0.756410000000     0.734370000000     0.0438168  
H53      H      0.805860000000     0.747780000000     0.658240000000     0.0583854  
H54      H      0.775230000000     0.737530000000     0.797750000000     0.0435466  
H55      H      0.742430000000     0.789740000000     0.643790000000     0.0680426  
H56      H      0.695860000000     0.741870000000     0.799710000000     0.0612606  
H57      H      0.759070000000     0.699880000000     0.823370000000     0.0605069  
H58      H      0.727160000000     0.750750000000     0.663330000000     0.045976   
H59      H      0.740040000000     0.682440000000     0.887070000000     0.0396356  
H60      H      0.745940000000     0.793490000000     0.512640000000     0.149708   
H61      H      0.763320000000     0.794060000000     0.404030000000     0.037064   
H62      H      0.725880000000     0.678100000000     0.107740000000     0.0344423  
H63      H      0.732700000000     0.786610000000     0.265530000000     0.043399   
H64      H      0.777840000000     0.725540000000     0.183640000000     0.0432684  
H65      H      0.745340000000     0.697600000000     0.167970000000     0.0571818  
H66      H      0.796280000000     0.744520000000     0.246920000000     0.0435543  
H67      H      0.718140000000     0.764730000000     0.123750000000     0.0663697  
H68      H      0.745050000000     0.776340000000     0.339990000000     0.0588206  
H69      H      0.811860000000     0.783100000000     0.271360000000     0.0594733  
H70      H      0.713990000000     0.767100000000     0.203140000000     0.0439954  
H71      H      0.829670000000     0.800540000000     0.336400000000     0.0375537  
H72      H      0.659800000000     0.754060000000     0.077340000000     0.15054    
H73      H      0.683770000000     0.271300000000     0.871340000000     0.0318627  
H74      H      0.834950000000     0.210410000000     0.627080000000     0.0361258  
H75      H      0.732320000000     0.219910000000     0.799530000000     0.0423075  
H76      H      0.790990000000     0.262840000000     0.707410000000     0.0429339  
H77      H      0.818850000000     0.228780000000     0.691570000000     0.0578244  
H78      H      0.772080000000     0.283470000000     0.768060000000     0.0415253  
H79      H      0.748990000000     0.204010000000     0.657420000000     0.0676284  
H80      H      0.703580000000     0.250340000000     0.812720000000     0.0582297  
H81      H      0.769450000000     0.285850000000     0.846000000000     0.0569159  
H82      H      0.750910000000     0.199520000000     0.738290000000     0.0452289  
H83      H      0.748780000000     0.307060000000     0.903500000000     0.0312915  
H84      H      0.759260000000     0.144800000000     0.602090000000     0.152147   
H85      H      0.691330000000     0.262320000000     0.093230000000     0.031937   
H86      H      0.780400000000     0.228170000000     0.426800000000     0.0377708  
H87      H      0.748550000000     0.225470000000     0.176490000000     0.0416269  
H88      H      0.770040000000     0.274280000000     0.305410000000     0.0425362  
H89      H      0.761440000000     0.246890000000     0.363970000000     0.0582863  
H90      H      0.749900000000     0.292870000000     0.243520000000     0.0414162  
H91      H      0.805620000000     0.205040000000     0.278310000000     0.058665   
H92      H      0.710770000000     0.243250000000     0.155230000000     0.0573404  
H93      H      0.756890000000     0.304220000000     0.168590000000     0.0572884  
H94      H      0.767790000000     0.206630000000     0.239320000000     0.0425276  
H95      H      0.736710000000     0.322900000000     0.107210000000     0.0318243  
H96      H      0.812460000000     0.153280000000     0.304210000000     0.148386   
H97      H      0.699850000000     0.400460000000     0.928990000000     0.032149   
H98      H      0.672510000000     0.597240000000     0.053680000000     0.0329401  
H99      H      0.721590000000     0.476840000000     0.962260000000     0.0422106  
H100     H      0.653230000000     0.520160000000     0.026750000000     0.0420661  
H101     H      0.674440000000     0.554560000000     0.057880000000     0.0561233  
H102     H      0.653540000000     0.476870000000     0.028200000000     0.0409568  
H103     H      0.698950000000     0.551910000000     0.925350000000     0.0670293  
H104     H      0.700910000000     0.443550000000     0.929150000000     0.0580773  
H105     H      0.673940000000     0.443180000000     0.061130000000     0.0567033  
H106     H      0.721210000000     0.520140000000     0.960690000000     0.0449338  
H107     H      0.672670000000     0.400090000000     0.059440000000     0.0309395  
H108     H      0.736930000000     0.612550000000     0.931780000000     0.148537   
H109     H      0.204330000000     0.828420000000     0.646120000000     0.0327625  
H110     H      0.322020000000     0.715560000000     0.867130000000     0.0348904  
H111     H      0.211150000000     0.779650000000     0.767120000000     0.0423548  
H112     H      0.275980000000     0.721180000000     0.743060000000     0.0429677  
H113     H      0.302440000000     0.733310000000     0.804840000000     0.0569605  
H114     H      0.257070000000     0.740470000000     0.680210000000     0.0418211  
H115     H      0.234330000000     0.721150000000     0.864280000000     0.0674939  
H116     H      0.221760000000     0.808730000000     0.709440000000     0.0574457  
H117     H      0.218240000000     0.741920000000     0.641180000000     0.0579206  
H118     H      0.230400000000     0.760720000000     0.829990000000     0.045025   
H119     H      0.200960000000     0.762220000000     0.578310000000     0.0318956  
H120     H      0.257870000000     0.731700000000     0.987310000000     0.147796   
H121     H      0.243420000000     0.800360000000     0.427790000000     0.0321782  
H122     H      0.310610000000     0.748880000000     0.084670000000     0.0362196  
H123     H      0.259340000000     0.744500000000     0.322220000000     0.0431606  
H124     H      0.251940000000     0.780410000000     0.174350000000     0.0447601  
H125     H      0.293440000000     0.769770000000     0.146790000000     0.0600435  
H126     H      0.233800000000     0.800340000000     0.236930000000     0.0449713  
H127     H      0.261950000000     0.704150000000     0.191300000000     0.0610026  
H128     H      0.263790000000     0.782840000000     0.365560000000     0.0591352  
H129     H      0.199660000000     0.790980000000     0.288560000000     0.0611593  
H130     H      0.277540000000     0.724630000000     0.259690000000     0.0448843  
H131     H      0.179810000000     0.808230000000     0.351370000000     0.0390419  
H132     H      0.291760000000     0.659710000000     0.183800000000     0.150311   
H133     H      0.602220000000     0.684900000000     0.059330000000     0.0331875  
H134     H      0.401980000000     0.676830000000     0.935870000000     0.0348938  
H135     H      0.523700000000     0.663320000000     0.058290000000     0.0426376  
H136     H      0.479550000000     0.702720000000     0.937250000000     0.0431942  
H137     H      0.444840000000     0.676440000000     0.932770000000     0.0572198  
H138     H      0.523000000000     0.700600000000     0.934550000000     0.0428299  
H139     H      0.448530000000     0.694730000000     0.068520000000     0.0674124  
H140     H      0.559060000000     0.688100000000     0.062860000000     0.0589422  
H141     H      0.554810000000     0.671800000000     0.925290000000     0.0583226  
H142     H      0.480300000000     0.665500000000     0.061010000000     0.0455192  
H143     H      0.598010000000     0.669200000000     0.922850000000     0.0349709  
H144     H      0.397850000000     0.663540000000     0.118040000000     0.159781   
H145     H      0.244470000000     0.184810000000     0.584450000000     0.0320242  
H146     H      0.274350000000     0.318250000000     0.877570000000     0.036337   
H147     H      0.260290000000     0.206560000000     0.726910000000     0.0424174  
H148     H      0.259620000000     0.294380000000     0.739160000000     0.0441786  
H149     H      0.255320000000     0.299310000000     0.816600000000     0.0572901  
H150     H      0.239940000000     0.275550000000     0.677160000000     0.044187   
H151     H      0.313110000000     0.249650000000     0.808380000000     0.0673808  
H152     H      0.264710000000     0.203100000000     0.646220000000     0.0585329  
H153     H      0.204670000000     0.250130000000     0.662790000000     0.0594485  
H154     H      0.279680000000     0.225330000000     0.789420000000     0.0439034  
H155     H      0.185040000000     0.231550000000     0.600840000000     0.0378385  
H156     H      0.329060000000     0.240570000000     0.927710000000     0.148831   
H157     H      0.332560000000     0.304610000000     0.131580000000     0.0332094  
H158     H      0.227830000000     0.180340000000     0.358220000000     0.0350563  
H159     H      0.282830000000     0.293640000000     0.249130000000     0.0428633  
H160     H      0.234260000000     0.220800000000     0.228780000000     0.0444984  
H161     H      0.246760000000     0.198940000000     0.296230000000     0.0575857  
H162     H      0.252760000000     0.239680000000     0.165380000000     0.0422654  
H163     H      0.224700000000     0.267350000000     0.342150000000     0.0687469  
H164     H      0.314520000000     0.285890000000     0.195070000000     0.0579502  
H165     H      0.249230000000     0.276710000000     0.121870000000     0.0584041  
H166     H      0.264780000000     0.274460000000     0.312620000000     0.0453571  
H167     H      0.267890000000     0.295360000000     0.058900000000     0.0313993  
H168     H      0.230980000000     0.249350000000     0.470720000000     0.147412   
H169     H      0.606890000000     0.340020000000     0.920200000000     0.031951   
H170     H      0.407480000000     0.300620000000     0.023400000000     0.0369739  
H171     H      0.529660000000     0.357840000000     0.956340000000     0.042079   
H172     H      0.484510000000     0.283960000000     0.987600000000     0.0440677  
H173     H      0.450290000000     0.298590000000     0.024530000000     0.057374   
H174     H      0.528020000000     0.283520000000     0.991350000000     0.0425499  
H175     H      0.453270000000     0.344500000000     0.912350000000     0.0663712  
H176     H      0.563620000000     0.339530000000     0.915350000000     0.0586836  
H177     H      0.560780000000     0.301220000000     0.037610000000     0.0573354  
H178     H      0.486220000000     0.358560000000     0.953670000000     0.0430185  
H179     H      0.604160000000     0.302060000000     0.041460000000     0.0321424  
H180     H      0.406160000000     0.386810000000     0.922560000000     0.148555   
H181     H      0.335240000000     0.405080000000     0.058420000000     0.031279   
H182     H      0.307320000000     0.604080000000     0.942550000000     0.0370606  
H183     H      0.305840000000     0.480930000000     0.063040000000     0.0425993  
H184     H      0.332600000000     0.527180000000     0.933850000000     0.0434809  
H185     H      0.304620000000     0.561430000000     0.939080000000     0.0585981  
H186     H      0.332720000000     0.483950000000     0.930860000000     0.0432225  
H187     H      0.336990000000     0.555840000000     0.065860000000     0.066846   
H188     H      0.332810000000     0.448030000000     0.061980000000     0.0580789  
H189     H      0.307790000000     0.449540000000     0.928310000000     0.0589306  
H190     H      0.306160000000     0.524230000000     0.066140000000     0.045424   
H191     H      0.311180000000     0.406610000000     0.925620000000     0.0364574  
H192     H      0.316380000000     0.607860000000     0.127110000000     0.157453   
In1      In     0.332950000000     0.331130000000     0.983800000000     2.42908    
In2      In     0.327170000000     0.677900000000     0.003460000000     2.44892    
In3      In     0.680950000000     0.325200000000     0.990340000000     2.41976    
In4      In     0.675650000000     0.671870000000     0.985650000000     2.44103    
In5      In     0.832230000000     0.170370000000     0.493060000000     2.43575    
In6      In     0.828130000000     0.825370000000     0.485140000000     2.43144    
In7      In     0.174840000000     0.830700000000     0.500230000000     2.42025    
In8      In     0.180120000000     0.176910000000     0.483590000000     2.43568    
N1       N      0.186060000000     0.901890000000     0.483770000000    -0.185344   
N2       N      0.184320000000     0.104640000000     0.482240000000    -0.194561   
N3       N      0.899990000000     0.814280000000     0.498350000000    -0.185827   
N4       N      0.103110000000     0.819990000000     0.511180000000    -0.196143   
N5       N      0.818190000000     0.099270000000     0.496710000000    -0.18538    
N6       N      0.820420000000     0.897300000000     0.483500000000    -0.194625   
N7       N      0.107600000000     0.185240000000     0.478180000000    -0.186099   
N8       N      0.904450000000     0.178290000000     0.487250000000    -0.194675   
N9       N      0.793480000000     0.791020000000     0.584260000000    -0.186359   
N10      N      0.707320000000     0.701830000000     0.879520000000    -0.192089   
N11      N      0.710140000000     0.709760000000     0.080500000000    -0.186046   
N12      N      0.797790000000     0.798490000000     0.374790000000    -0.192817   
N13      N      0.801490000000     0.196430000000     0.603800000000    -0.184253   
N14      N      0.714850000000     0.290660000000     0.891530000000    -0.196118   
N15      N      0.803400000000     0.206050000000     0.388780000000    -0.187023   
N16      N      0.712620000000     0.293940000000     0.095860000000    -0.19501    
N17      N      0.684590000000     0.599820000000     0.987140000000    -0.186551   
N18      N      0.686070000000     0.397240000000     0.994070000000    -0.195169   
N19      N      0.289830000000     0.707890000000     0.902560000000    -0.185535   
N20      N      0.201500000000     0.796750000000     0.607690000000    -0.194267   
N21      N      0.296140000000     0.715000000000     0.102480000000    -0.184915   
N22      N      0.210150000000     0.805360000000     0.394080000000    -0.193463   
N23      N      0.399770000000     0.685490000000     0.004240000000    -0.185103   
N24      N      0.603170000000     0.676820000000     0.990890000000    -0.194669   
N25      N      0.304890000000     0.295060000000     0.879780000000    -0.184849   
N26      N      0.213350000000     0.206890000000     0.588250000000    -0.193457   
N27      N      0.215040000000     0.212800000000     0.386620000000    -0.185988   
N28      N      0.301530000000     0.301280000000     0.090760000000    -0.195236   
N29      N      0.405030000000     0.324400000000     0.968330000000    -0.184795   
N30      N      0.608580000000     0.321190000000     0.981260000000    -0.194772   
N31      N      0.323720000000     0.605260000000     0.006260000000    -0.185569   
N32      N      0.323570000000     0.402820000000     0.991710000000    -0.194756   
O1       O      0.301050000000     0.314720000000     0.019300000000    -0.506416   
O2       O      0.333400000000     0.318410000000     0.054850000000    -0.492726   
O3       O      0.304920000000     0.325480000000     0.930610000000    -0.489382   
O4       O      0.322310000000     0.367120000000     0.954830000000    -0.487571   
O5       O      0.368770000000     0.313410000000     0.998350000000    -0.487011   
O6       O      0.333090000000     0.366200000000     0.021350000000    -0.507729   
O7       O      0.333140000000     0.300720000000     0.934780000000    -0.481666   
O8       O      0.368300000000     0.341650000000     0.952680000000    -0.485692   
O9       O      0.292830000000     0.684950000000     0.965640000000    -0.483173   
O10      O      0.324740000000     0.699580000000     0.940420000000    -0.497096   
O11      O      0.303390000000     0.680740000000     0.062940000000    -0.468529   
O12      O      0.330030000000     0.642110000000     0.038240000000    -0.475306   
O13      O      0.363480000000     0.679030000000     0.969590000000    -0.497869   
O14      O      0.319430000000     0.641830000000     0.972090000000    -0.500879   
O15      O      0.321080000000     0.712310000000     0.042490000000    -0.481387   
O16      O      0.362520000000     0.685580000000     0.037380000000    -0.479107   
O17      O      0.685150000000     0.294670000000     0.039290000000    -0.497159   
O18      O      0.707490000000     0.324860000000     0.046960000000    -0.501913   
O19      O      0.681810000000     0.298860000000     0.933730000000    -0.505174   
O20      O      0.645700000000     0.331510000000     0.954850000000    -0.502789   
O21      O      0.677030000000     0.360810000000     0.024810000000    -0.502777   
O22      O      0.644450000000     0.314070000000     0.016580000000    -0.494036   
O23      O      0.713670000000     0.317650000000     0.948140000000    -0.501883   
O24      O      0.690820000000     0.360960000000     0.960120000000    -0.498899   
O25      O      0.702270000000     0.675240000000     0.042070000000    -0.49984    
O26      O      0.682820000000     0.705820000000     0.023650000000    -0.485906   
O27      O      0.707080000000     0.676720000000     0.939380000000    -0.489053   
O28      O      0.683100000000     0.636570000000     0.952540000000    -0.483802   
O29      O      0.640720000000     0.678030000000     0.022270000000    -0.501339   
O30      O      0.676930000000     0.635890000000     0.020570000000    -0.501185   
O31      O      0.675650000000     0.696810000000     0.926760000000    -0.488698   
O32      O      0.638600000000     0.670540000000     0.954400000000    -0.496682   
O33      O      0.806570000000     0.197980000000     0.462720000000    -0.483509   
O34      O      0.828940000000     0.178460000000     0.420230000000    -0.47297    
O35      O      0.801000000000     0.174820000000     0.539220000000    -0.477642   
O36      O      0.832300000000     0.134360000000     0.526780000000    -0.48085    
O37      O      0.866280000000     0.193000000000     0.497010000000    -0.494524   
O38      O      0.816950000000     0.136350000000     0.463620000000    -0.4915     
O39      O      0.833800000000     0.190340000000     0.557960000000    -0.49296    
O40      O      0.869860000000     0.156240000000     0.483500000000    -0.500993   
O41      O      0.829560000000     0.814440000000     0.413210000000    -0.483308   
O42      O      0.796670000000     0.810460000000     0.446780000000    -0.495274   
O43      O      0.824880000000     0.795460000000     0.535800000000    -0.498119   
O44      O      0.864980000000     0.834840000000     0.511640000000    -0.506455   
O45      O      0.823500000000     0.860890000000     0.449240000000    -0.503379   
O46      O      0.862150000000     0.804150000000     0.472690000000    -0.474515   
O47      O      0.797650000000     0.821330000000     0.533280000000    -0.478502   
O48      O      0.824920000000     0.861240000000     0.518610000000    -0.491289   
O49      O      0.186430000000     0.797290000000     0.537240000000    -0.501126   
O50      O      0.189110000000     0.830310000000     0.570270000000    -0.492057   
O51      O      0.176510000000     0.819170000000     0.429030000000    -0.486777   
O52      O      0.140750000000     0.809360000000     0.487780000000    -0.497696   
O53      O      0.191180000000     0.866250000000     0.520770000000    -0.488421   
O54      O      0.137860000000     0.840580000000     0.525830000000    -0.509223   
O55      O      0.208680000000     0.817840000000     0.465960000000    -0.500035   
O56      O      0.170630000000     0.865460000000     0.462730000000    -0.484009   
O57      O      0.188200000000     0.210220000000     0.443980000000    -0.477899   
O58      O      0.206720000000     0.178930000000     0.427070000000    -0.497463   
O59      O      0.181570000000     0.202800000000     0.540600000000    -0.489051   
O60      O      0.143160000000     0.178120000000     0.514980000000    -0.499878   
O61      O      0.186210000000     0.140990000000     0.516920000000    -0.500893   
O62      O      0.145370000000     0.184070000000     0.447030000000    -0.482117   
O63      O      0.211580000000     0.180350000000     0.530850000000    -0.499638   
O64      O      0.178520000000     0.141090000000     0.448880000000    -0.496615   
O65      O      0.194350000000     0.878060000000     0.387110000000    -0.155315   
O66      O      0.146910000000     0.888490000000     0.394590000000    -0.248923   
O67      O      0.177350000000     0.918630000000     0.353560000000    -0.174814   
O68      O      0.878420000000     0.758720000000     0.483240000000    -0.14718    
O69      O      0.885000000000     0.781910000000     0.405470000000    -0.246489   
O70      O      0.918150000000     0.751310000000     0.436980000000    -0.174472   
O71      O      0.853860000000     0.107060000000     0.591090000000    -0.147762   
O72      O      0.806660000000     0.118760000000     0.597420000000    -0.249789   
O73      O      0.822550000000     0.075920000000     0.624670000000    -0.175353   
O74      O      0.127920000000     0.220090000000     0.396390000000    -0.132789   
O75      O      0.123060000000     0.174060000000     0.369470000000    -0.248792   
O76      O      0.088690000000     0.206690000000     0.352920000000    -0.171675   
O77      O      0.760840000000     0.844240000000     0.575440000000    -0.14501    
O78      O      0.751390000000     0.810190000000     0.514250000000    -0.246645   
O79      O      0.723620000000     0.814740000000     0.585640000000    -0.173755   
O80      O      0.704120000000     0.746920000000     0.995990000000    -0.153779   
O81      O      0.664390000000     0.749190000000     0.047450000000    -0.247625   
O82      O      0.700110000000     0.781330000000     0.055530000000    -0.173643   
O83      O      0.756550000000     0.193550000000     0.528710000000    -0.145917   
O84      O      0.762380000000     0.151560000000     0.572720000000    -0.247738   
O85      O      0.728680000000     0.183170000000     0.596960000000    -0.175622   
O86      O      0.846160000000     0.178740000000     0.391700000000    -0.0729611  
O87      O      0.821680000000     0.151290000000     0.331670000000    -0.256684   
O88      O      0.852330000000     0.186420000000     0.304250000000    -0.173478   
O89      O      0.681810000000     0.612180000000     0.874400000000    -0.147515   
O90      O      0.724360000000     0.621100000000     0.915200000000    -0.247269   
O91      O      0.717170000000     0.580060000000     0.871770000000    -0.175266   
O92      O      0.245350000000     0.673020000000     0.952300000000    -0.141707   
O93      O      0.257330000000     0.714410000000     0.993300000000    -0.252867   
O94      O      0.219100000000     0.712350000000     0.939430000000    -0.172649   
O95      O      0.283310000000     0.669600000000     0.069220000000    -0.0536484  
O96      O      0.295200000000     0.655260000000     0.153170000000    -0.244356   
O97      O      0.248750000000     0.665890000000     0.131520000000    -0.165349   
O98      O      0.381690000000     0.721830000000     0.084880000000    -0.144886   
O99      O      0.385590000000     0.676060000000     0.114400000000    -0.238404   
O100     O      0.421140000000     0.707860000000     0.127280000000    -0.172092   
O101     O      0.364580000000     0.283880000000     0.874260000000    -0.136228   
O102     O      0.341450000000     0.253090000000     0.928960000000    -0.249612   
O103     O      0.351440000000     0.240960000000     0.845570000000    -0.172696   
O104     O      0.173750000000     0.256000000000     0.422290000000    -0.131739   
O105     O      0.213370000000     0.248650000000     0.472990000000    -0.254657   
O106     O      0.211970000000     0.284450000000     0.414030000000    -0.172516   
O107     O      0.384070000000     0.335680000000     0.868590000000    -0.137746   
O108     O      0.392590000000     0.377640000000     0.910460000000    -0.249204   
O109     O      0.424980000000     0.358910000000     0.854750000000    -0.171637   
O110     O      0.370000000000     0.620310000000     0.070270000000    -0.153151   
O111     O      0.328790000000     0.619310000000     0.117780000000    -0.23102    
O112     O      0.359000000000     0.581810000000     0.117600000000    -0.173514   
S1       S      0.174740000000     0.899660000000     0.394820000000     0.280987   
S2       S      0.898330000000     0.771700000000     0.451160000000     0.281042   
S3       S      0.826220000000     0.096870000000     0.587080000000     0.281695   
S4       S      0.108820000000     0.197950000000     0.389410000000     0.280759   
S5       S      0.751470000000     0.816650000000     0.567900000000     0.281226   
S6       S      0.694130000000     0.753030000000     0.045600000000     0.2817     
S7       S      0.756110000000     0.180630000000     0.577450000000     0.283285   
S8       S      0.832880000000     0.178370000000     0.342150000000     0.254061   
S9       S      0.704000000000     0.600200000000     0.902820000000     0.281304   
S10      S      0.246600000000     0.702280000000     0.947040000000     0.282102   
S11      S      0.277120000000     0.672530000000     0.122800000000     0.258365   
S12      S      0.400230000000     0.699230000000     0.092320000000     0.282598   
S13      S      0.343490000000     0.263340000000     0.877400000000     0.281599   
S14      S      0.203300000000     0.256740000000     0.423230000000     0.281074   
S15      S      0.404790000000     0.352260000000     0.892300000000     0.281608   
S16      S      0.347610000000     0.603360000000     0.086920000000     0.282199   


