data_structure

_audit_creation_method RASPA-1.0
_audit_creation_date 2023-6-5
_audit_author_name 'Poobodin Mano'

_cell_length_a    55.8121
_cell_length_b    55.626
_cell_length_c    31.0425
_cell_angle_alpha 89.7728
_cell_angle_beta  90.2273
_cell_angle_gamma 89.9997
_cell_volume      96373.1

_symmetry_cell_setting          triclinic
_symmetry_space_group_name_Hall 'P 1'
_symmetry_space_group_name_H-M  'P 1'
_symmetry_Int_Tables_number     1

_symmetry_equiv_pos_as_xyz 'x,y,z'

loop_
_atom_site_label
_atom_site_type_symbol
_atom_site_fract_x
_atom_site_fract_y
_atom_site_fract_z
_atom_site_charge
C1       C      0.328070000000     0.377430000000     0.989420000000     0.414785   
C2       C      0.316530000000     0.304390000000     0.916040000000     0.442822   
C3       C      0.380370000000     0.318700000000     0.978810000000     0.43675    
C4       C      0.309770000000     0.314730000000     0.056970000000     0.410176   
C5       C      0.324510000000     0.631020000000     0.986470000000     0.441203   
C6       C      0.311700000000     0.702100000000     0.059470000000     0.437999   
C7       C      0.378330000000     0.684760000000     0.998660000000     0.415957   
C8       C      0.308240000000     0.697820000000     0.919660000000     0.416744   
C9       C      0.632170000000     0.325850000000     0.973650000000     0.415746   
C10      C      0.703590000000     0.317550000000     0.899530000000     0.439998   
C11      C      0.683460000000     0.382780000000     0.968350000000     0.417132   
C12      C      0.699770000000     0.310910000000     0.037270000000     0.444542   
C13      C      0.683510000000     0.636680000000     0.984900000000     0.438242   
C14      C      0.701920000000     0.707620000000     0.922170000000     0.414311   
C15      C      0.631540000000     0.689210000000     0.992920000000     0.440993   
C16      C      0.702710000000     0.706750000000     0.054930000000     0.414339   
C17      C      0.826770000000     0.137760000000     0.468050000000     0.438443   
C18      C      0.815310000000     0.208380000000     0.541710000000     0.414946   
C19      C      0.881140000000     0.191680000000     0.471110000000     0.446754   
C20      C      0.810040000000     0.205020000000     0.402110000000     0.416757   
C21      C      0.878310000000     0.832290000000     0.493690000000     0.443662   
C22      C      0.810000000000     0.817210000000     0.559800000000     0.442611   
C23      C      0.821050000000     0.884710000000     0.484190000000     0.42273    
C24      C      0.811310000000     0.815520000000     0.417820000000     0.44311    
C25      C      0.131180000000     0.824900000000     0.492450000000     0.416984   
C26      C      0.202350000000     0.810740000000     0.419740000000     0.417189   
C27      C      0.185360000000     0.878500000000     0.482780000000     0.438095   
C28      C      0.198030000000     0.807350000000     0.557430000000     0.438541   
C29      C      0.134150000000     0.187550000000     0.480380000000     0.413808   
C30      C      0.206370000000     0.198710000000     0.553970000000     0.416917   
C31      C      0.187190000000     0.132610000000     0.490040000000     0.413241   
C32      C      0.199330000000     0.205940000000     0.416930000000     0.440724   
C33      C      0.206470000000     0.939730000000     0.505290000000    -0.218733   
C34      C      0.173610000000     0.094900000000     0.516310000000     0.0774063  
C35      C      0.205440000000     0.096470000000     0.466010000000     0.0777559  
C36      C      0.174220000000     0.069820000000     0.516160000000    -0.0921432  
C37      C      0.168860000000     0.018230000000     0.487620000000    -0.0375106  
C38      C      0.168700000000     0.993160000000     0.485580000000    -0.02216    
C39      C      0.190600000000     0.030990000000     0.487770000000    -0.000458882
C40      C      0.206510000000     0.071370000000     0.465000000000    -0.0915989  
C41      C      0.190270000000     0.980180000000     0.483490000000    -0.0252921  
C42      C      0.172600000000     0.941420000000     0.457190000000    -0.127394   
C43      C      0.212040000000     0.992920000000     0.483550000000    -0.0215354  
C44      C      0.171710000000     0.916350000000     0.457510000000     0.0998679  
C45      C      0.205140000000     0.914620000000     0.504890000000     0.418782   
C46      C      0.212200000000     0.018040000000     0.485630000000    -0.0368826  
C47      C      0.190590000000     0.057700000000     0.489890000000     0.0516512  
C48      C      0.189920000000     0.953460000000     0.481710000000     0.110902   
C49      C      0.941880000000     0.847550000000     0.506560000000    -0.219143   
C50      C      0.093430000000     0.822260000000     0.457300000000     0.0801891  
C51      C      0.095470000000     0.821920000000     0.533600000000     0.0792062  
C52      C      0.068460000000     0.821160000000     0.458640000000    -0.091888   
C53      C      0.016360000000     0.807370000000     0.470490000000    -0.0368609  
C54      C      0.991330000000     0.808500000000     0.470820000000    -0.0216935  
C55      C      0.030000000000     0.820620000000     0.500290000000    -0.000281831
C56      C      0.070510000000     0.820760000000     0.536150000000    -0.0915881  
C57      C      0.979350000000     0.822900000000     0.500990000000    -0.0247682  
C58      C      0.938130000000     0.805340000000     0.491360000000    -0.12642    
C59      C      0.992980000000     0.835700000000     0.531420000000    -0.0215535  
C60      C      0.913260000000     0.808100000000     0.489580000000     0.103849   
C61      C      0.916970000000     0.849730000000     0.504650000000     0.421048   
C62      C      0.017980000000     0.834610000000     0.531040000000    -0.0365357  
C63      C      0.056640000000     0.820590000000     0.498380000000     0.0525365  
C64      C      0.952790000000     0.825210000000     0.499860000000     0.112314   
C65      C      0.839150000000     0.073700000000     0.451720000000    -0.219548   
C66      C      0.820700000000     0.923010000000     0.517650000000     0.0880113  
C67      C      0.811820000000     0.919680000000     0.443150000000     0.084513   
C68      C      0.818760000000     0.947990000000     0.515250000000    -0.0893375  
C69      C      0.803420000000     0.000000000000     0.505310000000    -0.0367306  
C70      C      0.804530000000     0.025080000000     0.503130000000    -0.0208366  
C71      C      0.813020000000     0.985840000000     0.472150000000     0.00133553 
C72      C      0.809660000000     0.944630000000     0.439620000000    -0.0897278  
C73      C      0.815250000000     0.036600000000     0.467710000000    -0.0249839  
C74      C      0.799690000000     0.078290000000     0.481470000000    -0.127212   
C75      C      0.824240000000     0.022440000000     0.434010000000    -0.0201921  
C76      C      0.802960000000     0.103200000000     0.481350000000     0.101551   
C77      C      0.841880000000     0.098640000000     0.451950000000     0.42049    
C78      C      0.823180000000     0.997380000000     0.436220000000    -0.0356111  
C79      C      0.813480000000     0.959170000000     0.475800000000     0.0551206  
C80      C      0.817940000000     0.063190000000     0.466680000000     0.112555   
C81      C      0.943090000000     0.194980000000     0.432480000000    -0.219137   
C82      C      0.096840000000     0.192970000000     0.515450000000     0.0798155  
C83      C      0.098160000000     0.189670000000     0.439360000000     0.079078   
C84      C      0.071910000000     0.194840000000     0.514240000000    -0.0917841  
C85      C      0.020340000000     0.210370000000     0.500620000000    -0.0370635  
C86      C      0.995300000000     0.210730000000     0.499960000000    -0.0218761  
C87      C      0.033120000000     0.195040000000     0.473030000000    -0.000191427
C88      C      0.073230000000     0.191550000000     0.436950000000    -0.0914912  
C89      C      0.982460000000     0.195850000000     0.471580000000    -0.0248829  
C90      C      0.942960000000     0.196040000000     0.509950000000    -0.126798   
C91      C      0.995230000000     0.180710000000     0.443720000000    -0.0209036  
C92      C      0.917960000000     0.194950000000     0.509080000000     0.103952   
C93      C      0.918090000000     0.194000000000     0.432640000000     0.425685   
C94      C      0.020250000000     0.180290000000     0.444470000000    -0.0361042  
C95      C      0.059740000000     0.193990000000     0.474700000000     0.052532   
C96      C      0.955850000000     0.195800000000     0.471350000000     0.113669   
C97      C      0.767350000000     0.804060000000     0.646440000000    -0.219724   
C98      C      0.735390000000     0.711630000000     0.875680000000     0.0781178  
C99      C      0.701550000000     0.736930000000     0.866320000000     0.0785365  
C100     C      0.746750000000     0.722510000000     0.840660000000    -0.0922096  
C101     C      0.759450000000     0.738640000000     0.749960000000    -0.0375954  
C102     C      0.770090000000     0.749430000000     0.714100000000    -0.0220542  
C103     C      0.746890000000     0.752550000000     0.780100000000    -0.000492465
C104     C      0.712400000000     0.748230000000     0.831200000000    -0.0919275  
C105     C      0.768430000000     0.774400000000     0.707530000000    -0.025506   
C106     C      0.801900000000     0.778520000000     0.654180000000    -0.127302   
C107     C      0.755990000000     0.788330000000     0.737820000000    -0.0213676  
C108     C      0.811790000000     0.789320000000     0.617680000000     0.100869   
C109     C      0.777710000000     0.814520000000     0.610010000000     0.420467   
C110     C      0.745340000000     0.777540000000     0.773670000000    -0.0370334  
C111     C      0.735240000000     0.741010000000     0.817850000000     0.0519448  
C112     C      0.779390000000     0.785830000000     0.668990000000     0.111766   
C113     C      0.803290000000     0.794210000000     0.306870000000    -0.21885    
C114     C      0.707950000000     0.740550000000     0.100500000000     0.082907   
C115     C      0.731220000000     0.705420000000     0.111950000000     0.0820635  
C116     C      0.718910000000     0.751710000000     0.135650000000    -0.0902627  
C117     C      0.734140000000     0.764570000000     0.226570000000    -0.036475   
C118     C      0.744800000000     0.775130000000     0.262620000000    -0.021033   
C119     C      0.747830000000     0.750830000000     0.197800000000     0.000766463
C120     C      0.742560000000     0.716040000000     0.147280000000    -0.089835   
C121     C      0.769430000000     0.772220000000     0.270810000000    -0.0248678  
C122     C      0.768850000000     0.783340000000     0.349040000000    -0.126438   
C123     C      0.783160000000     0.758550000000     0.241960000000    -0.0209614  
C124     C      0.779510000000     0.794100000000     0.384840000000     0.101399   
C125     C      0.813500000000     0.804860000000     0.343310000000     0.419942   
C126     C      0.772480000000     0.747960000000     0.205900000000    -0.0366099  
C127     C      0.736370000000     0.739420000000     0.159690000000     0.053606   
C128     C      0.780690000000     0.783360000000     0.309370000000     0.11186    
C129     C      0.751520000000     0.294130000000     0.830750000000    -0.219153   
C130     C      0.800840000000     0.243760000000     0.575350000000     0.0774817  
C131     C      0.800860000000     0.206760000000     0.613550000000     0.0783319  
C132     C      0.790560000000     0.255420000000     0.610490000000    -0.0920283  
C133     C      0.755620000000     0.271890000000     0.678730000000    -0.0376107  
C134     C      0.744490000000     0.282910000000     0.713730000000    -0.0223231  
C135     C      0.773510000000     0.254430000000     0.685280000000    -0.00051923 
C136     C      0.790480000000     0.217830000000     0.649240000000    -0.0918235  
C137     C      0.750900000000     0.276690000000     0.756190000000    -0.0251219  
C138     C      0.714020000000     0.292630000000     0.792380000000    -0.127052   
C139     C      0.768860000000     0.259310000000     0.762750000000    -0.0214896  
C140     C      0.702750000000     0.302800000000     0.828000000000     0.10136    
C141     C      0.739710000000     0.304210000000     0.865960000000     0.419506   
C142     C      0.780050000000     0.248350000000     0.727740000000    -0.0367141  
C143     C      0.785080000000     0.242440000000     0.647970000000     0.0516924  
C144     C      0.738690000000     0.288040000000     0.793490000000     0.111401   
C145     C      0.710320000000     0.267560000000     0.124860000000    -0.21831    
C146     C      0.806880000000     0.235670000000     0.349050000000     0.0824697  
C147     C      0.778790000000     0.203680000000     0.349900000000     0.080027   
C148     C      0.795450000000     0.245940000000     0.313430000000    -0.091088   
C149     C      0.759560000000     0.270670000000     0.254980000000    -0.0371332  
C150     C      0.748740000000     0.281010000000     0.218770000000    -0.0215943  
C151     C      0.762890000000     0.245670000000     0.257650000000     0.000201349
C152     C      0.766930000000     0.213440000000     0.314170000000    -0.0913     
C153     C      0.740990000000     0.266600000000     0.184330000000    -0.0249134  
C154     C      0.739890000000     0.298980000000     0.128120000000    -0.126716   
C155     C      0.743940000000     0.241550000000     0.187280000000    -0.0204721  
C156     C      0.729490000000     0.309570000000     0.091820000000     0.105167   
C157     C      0.700260000000     0.278630000000     0.088500000000     0.420521   
C158     C      0.754770000000     0.231190000000     0.223560000000    -0.0360327  
C159     C      0.775200000000     0.234860000000     0.295560000000     0.0533653  
C160     C      0.730260000000     0.277800000000     0.145270000000     0.112749   
C161     C      0.686190000000     0.573170000000     0.017110000000    -0.21923    
C162     C      0.685060000000     0.419990000000     0.930450000000     0.078482   
C163     C      0.686130000000     0.419450000000     0.006810000000     0.080231   
C164     C      0.686200000000     0.445100000000     0.930260000000    -0.0918124  
C165     C      0.673840000000     0.498000000000     0.941270000000    -0.0376199  
C166     C      0.673810000000     0.523100000000     0.943170000000    -0.0222904  
C167     C      0.687960000000     0.484410000000     0.970030000000    -0.000579113
C168     C      0.687250000000     0.444490000000     0.007820000000    -0.0920707  
C169     C      0.687840000000     0.535190000000     0.973920000000    -0.0256554  
C170     C      0.687200000000     0.576150000000     0.939790000000    -0.127793   
C171     C      0.702210000000     0.521640000000     0.002260000000    -0.0216011  
C172     C      0.686170000000     0.601140000000     0.943290000000     0.100375   
C173     C      0.685060000000     0.598220000000     0.019560000000     0.419353   
C174     C      0.702300000000     0.496550000000     0.000290000000    -0.0368185  
C175     C      0.687250000000     0.457680000000     0.969280000000     0.0521689  
C176     C      0.687160000000     0.561830000000     0.976950000000     0.111263   
C177     C      0.222910000000     0.760180000000     0.627560000000    -0.218834   
C178     C      0.272930000000     0.711890000000     0.884790000000     0.0785989  
C179     C      0.310130000000     0.713120000000     0.848200000000     0.0792206  
C180     C      0.261360000000     0.722130000000     0.849220000000    -0.0915213  
C181     C      0.244740000000     0.757060000000     0.780020000000    -0.0369344  
C182     C      0.233730000000     0.767940000000     0.744430000000    -0.0218285  
C183     C      0.262540000000     0.739470000000     0.774390000000    -0.000175487
C184     C      0.299150000000     0.723430000000     0.812090000000    -0.0916473  
C185     C      0.240280000000     0.761530000000     0.702320000000    -0.0246731  
C186     C      0.223890000000     0.798060000000     0.664650000000    -0.12554    
C187     C      0.258000000000     0.743860000000     0.696680000000    -0.0212414  
C188     C      0.213440000000     0.808960000000     0.628630000000     0.10252    
C189     C      0.212490000000     0.771620000000     0.591950000000     0.419384   
C190     C      0.268990000000     0.732960000000     0.732270000000    -0.0366258  
C191     C      0.274470000000     0.728140000000     0.812290000000     0.0522849  
C192     C      0.228840000000     0.773380000000     0.664430000000     0.111602   
C193     C      0.302790000000     0.744790000000     0.147970000000    -0.217959   
C194     C      0.204690000000     0.780430000000     0.366370000000     0.0828561  
C195     C      0.234540000000     0.810710000000     0.369760000000     0.0803333  
C196     C      0.216140000000     0.769790000000     0.331440000000    -0.0911445  
C197     C      0.251590000000     0.743430000000     0.275240000000    -0.0366042  
C198     C      0.262390000000     0.732750000000     0.239620000000    -0.0213421  
C199     C      0.249660000000     0.768570000000     0.278030000000     0.000259765
C200     C      0.246460000000     0.800550000000     0.334730000000    -0.0905993  
C201     C      0.271490000000     0.746930000000     0.205870000000    -0.0245836  
C202     C      0.271650000000     0.714900000000     0.149350000000    -0.125692   
C203     C      0.269940000000     0.772100000000     0.208980000000    -0.0212184  
C204     C      0.281830000000     0.704150000000     0.113280000000     0.103317   
C205     C      0.312590000000     0.733600000000     0.111810000000     0.418829   
C206     C      0.259150000000     0.782800000000     0.244690000000    -0.0365113  
C207     C      0.237320000000     0.779790000000     0.315210000000     0.0534031  
C208     C      0.282140000000     0.735420000000     0.167280000000     0.111806   
C209     C      0.570730000000     0.696920000000     0.035410000000    -0.218206   
C210     C      0.413830000000     0.707180000000     0.985540000000     0.08253    
C211     C      0.416220000000     0.668860000000     0.019000000000     0.0807553  
C212     C      0.438770000000     0.709310000000     0.986460000000    -0.0905886  
C213     C      0.491510000000     0.701990000000     0.967510000000    -0.0371519  
C214     C      0.516540000000     0.702500000000     0.966310000000    -0.0220376  
C215     C      0.479460000000     0.692050000000     0.003090000000     0.000290639
C216     C      0.441180000000     0.670330000000     0.020230000000    -0.0909601  
C217     C      0.530170000000     0.692990000000     0.000560000000    -0.0245261  
C218     C      0.568600000000     0.687720000000     0.959840000000    -0.126909   
C219     C      0.518120000000     0.683330000000     0.036380000000    -0.0211382  
C220     C      0.593590000000     0.686920000000     0.958680000000     0.101107   
C221     C      0.595730000000     0.695870000000     0.033270000000     0.420579   
C222     C      0.493090000000     0.682920000000     0.037660000000    -0.0360832  
C223     C      0.452830000000     0.690650000000     0.003560000000     0.0531961  
C224     C      0.556810000000     0.692670000000     0.998550000000     0.111332   
C225     C      0.290150000000     0.256820000000     0.849320000000    -0.219724   
C226     C      0.241910000000     0.201950000000     0.596140000000     0.0803703  
C227     C      0.206510000000     0.222150000000     0.617610000000     0.0818934  
C228     C      0.254220000000     0.210980000000     0.631900000000    -0.0917334  
C229     C      0.277280000000     0.246650000000     0.695390000000    -0.0372399  
C230     C      0.288420000000     0.257140000000     0.731100000000    -0.0216869  
C231     C      0.254830000000     0.235480000000     0.699610000000    -0.000471487
C232     C      0.218140000000     0.231190000000     0.653940000000    -0.092028   
C233     C      0.277480000000     0.256330000000     0.771790000000    -0.0260264  
C234     C      0.297240000000     0.291930000000     0.805680000000    -0.12822    
C235     C      0.255320000000     0.244610000000     0.776180000000    -0.0214222  
C236     C      0.306560000000     0.303550000000     0.841800000000     0.101209   
C237     C      0.299880000000     0.268820000000     0.884800000000     0.419569   
C238     C      0.244040000000     0.234420000000     0.740400000000    -0.0370938  
C239     C      0.242270000000     0.225680000000     0.661380000000     0.0533106  
C240     C      0.288660000000     0.268400000000     0.809300000000     0.112141   
C241     C      0.223070000000     0.254760000000     0.349450000000    -0.218757   
C242     C      0.273520000000     0.304770000000     0.092770000000     0.0818983  
C243     C      0.310750000000     0.299950000000     0.128850000000     0.0813591  
C244     C      0.261340000000     0.295600000000     0.128480000000    -0.0902765  
C245     C      0.242890000000     0.260900000000     0.196480000000    -0.0368154  
C246     C      0.231820000000     0.249850000000     0.231680000000    -0.0213569  
C247     C      0.261670000000     0.277380000000     0.202710000000     0.000842308
C248     C      0.299160000000     0.290730000000     0.165120000000    -0.0889557  
C249     C      0.239250000000     0.255030000000     0.273970000000    -0.0251566  
C250     C      0.223050000000     0.217850000000     0.309330000000    -0.127242   
C251     C      0.257750000000     0.271830000000     0.280240000000    -0.0209392  
C252     C      0.213250000000     0.206110000000     0.344930000000     0.101106   
C253     C      0.213200000000     0.242500000000     0.384590000000     0.418185   
C254     C      0.268840000000     0.282860000000     0.245030000000    -0.0367809  
C255     C      0.274170000000     0.288240000000     0.165140000000     0.0531039  
C256     C      0.228200000000     0.242450000000     0.311300000000     0.111286   
C257     C      0.441200000000     0.299080000000     0.007440000000    -0.218902   
C258     C      0.597740000000     0.303660000000     0.952290000000     0.0816766  
C259     C      0.593780000000     0.336720000000     0.999750000000     0.0802555  
C260     C      0.572960000000     0.299990000000     0.952740000000    -0.0910511  
C261     C      0.519390000000     0.307910000000     0.938390000000    -0.0374656  
C262     C      0.494370000000     0.306770000000     0.937850000000    -0.0219588  
C263     C      0.531830000000     0.312090000000     0.977110000000    -0.000293507
C264     C      0.569000000000     0.333490000000     0.001120000000    -0.0917752  
C265     C      0.481250000000     0.309670000000     0.976040000000    -0.0255195  
C266     C      0.442500000000     0.323160000000     0.942950000000    -0.127781   
C267     C      0.493730000000     0.313150000000     0.014940000000    -0.0211959  
C268     C      0.417610000000     0.325220000000     0.944310000000     0.101408   
C269     C      0.416250000000     0.301370000000     0.007830000000     0.420271   
C270     C      0.518730000000     0.314390000000     0.015460000000    -0.0365168  
C271     C      0.558270000000     0.315050000000     0.977240000000     0.0530259  
C272     C      0.454650000000     0.310310000000     0.975140000000     0.111844   
C273     C      0.313220000000     0.568640000000     0.019460000000    -0.220128   
C274     C      0.344800000000     0.415660000000     0.004870000000     0.0780747  
C275     C      0.305870000000     0.412980000000     0.974330000000     0.0778418  
C276     C      0.343710000000     0.440710000000     0.003620000000    -0.0924904  
C277     C      0.341590000000     0.491960000000     0.968790000000    -0.037933   
C278     C      0.340810000000     0.517050000000     0.967270000000    -0.0221847  
C279     C      0.322110000000     0.478780000000     0.985020000000    -0.000930663
C280     C      0.304060000000     0.438040000000     0.973100000000    -0.0923865  
C281     C      0.320640000000     0.529490000000     0.982390000000    -0.0262147  
C282     C      0.328100000000     0.569310000000     0.946820000000    -0.128371   
C283     C      0.301080000000     0.516330000000     0.998380000000    -0.0218788  
C284     C      0.328790000000     0.594380000000     0.948470000000     0.100337   
C285     C      0.314390000000     0.593720000000     0.020330000000     0.419835   
C286     C      0.301740000000     0.491200000000     0.999400000000    -0.0372813  
C287     C      0.323240000000     0.452180000000     0.987380000000     0.051859   
C288     C      0.320410000000     0.556150000000     0.982690000000     0.111703   
F1       F      0.221400000000     0.902190000000     0.528890000000    -0.442846   
F2       F      0.907440000000     0.871900000000     0.511150000000    -0.4433     
F3       F      0.862950000000     0.107770000000     0.437370000000    -0.438947   
F4       F      0.906670000000     0.193150000000     0.393920000000    -0.437273   
F5       F      0.765150000000     0.832040000000     0.589270000000    -0.443722   
F6       F      0.835390000000     0.815290000000     0.338990000000    -0.442955   
F7       F      0.753050000000     0.309730000000     0.901280000000    -0.444117   
F8       F      0.680790000000     0.268090000000     0.070160000000    -0.444278   
F9       F      0.683970000000     0.608260000000     0.059360000000    -0.440885   
F10      F      0.207100000000     0.757920000000     0.557080000000    -0.444982   
F11      F      0.332740000000     0.743320000000     0.094510000000    -0.444122   
F12      F      0.608320000000     0.700140000000     0.070020000000    -0.440812   
F13      F      0.300820000000     0.256800000000     0.922970000000    -0.443025   
F14      F      0.208590000000     0.255310000000     0.420810000000    -0.446051   
F15      F      0.404080000000     0.290330000000     0.040170000000    -0.440132   
F16      F      0.307470000000     0.604930000000     0.057060000000    -0.443034   
H1       H      0.217790000000     0.106430000000     0.445810000000     0.033607   
H2       H      0.157840000000     0.907820000000     0.438380000000     0.0273848  
H3       H      0.229280000000     0.027290000000     0.486040000000     0.0447063  
H4       H      0.151610000000     0.983940000000     0.486160000000     0.0394359  
H5       H      0.159740000000     0.951270000000     0.437770000000     0.0665274  
H6       H      0.151870000000     0.027620000000     0.488640000000     0.0434019  
H7       H      0.220040000000     0.948330000000     0.524940000000     0.120279   
H8       H      0.219340000000     0.062780000000     0.443970000000     0.0581121  
H9       H      0.161900000000     0.060010000000     0.536570000000     0.0577899  
H10      H      0.228980000000     0.983490000000     0.481600000000     0.04389    
H11      H      0.160500000000     0.103570000000     0.536750000000     0.0316062  
H12      H      0.105570000000     0.822190000000     0.563510000000     0.0334424  
H13      H      0.902570000000     0.792260000000     0.482910000000     0.0312662  
H14      H      0.027900000000     0.845230000000     0.554210000000     0.0446139  
H15      H      0.981420000000     0.798550000000     0.446710000000     0.0413872  
H16      H      0.945770000000     0.787670000000     0.486450000000     0.0680355  
H17      H      0.025020000000     0.796160000000     0.446720000000     0.0444144  
H18      H      0.952550000000     0.863470000000     0.512510000000     0.121194   
H19      H      0.062160000000     0.819970000000     0.567560000000     0.0584574  
H20      H      0.058500000000     0.821390000000     0.428630000000     0.0588918  
H21      H      0.984330000000     0.846700000000     0.555500000000     0.0439393  
H22      H      0.101860000000     0.822980000000     0.425900000000     0.0341318  
H23      H      0.809040000000     0.909070000000     0.414330000000     0.0386343  
H24      H      0.788400000000     0.114240000000     0.493170000000     0.0286541  
H25      H      0.830960000000     0.987070000000     0.410280000000     0.0481391  
H26      H      0.797580000000     0.035420000000     0.529810000000     0.0403256  
H27      H      0.782880000000     0.070970000000     0.492860000000     0.0674017  
H28      H      0.795190000000     0.991700000000     0.533190000000     0.0456396  
H29      H      0.853870000000     0.062680000000     0.440640000000     0.122791   
H30      H      0.805150000000     0.952460000000     0.408630000000     0.0610817  
H31      H      0.822130000000     0.958480000000     0.543960000000     0.0625243  
H32      H      0.832310000000     0.030730000000     0.405960000000     0.0458158  
H33      H      0.825240000000     0.915100000000     0.548610000000     0.0424767  
H34      H      0.107960000000     0.187670000000     0.409490000000     0.0329736  
H35      H      0.908680000000     0.194840000000     0.539720000000     0.0281297  
H36      H      0.029480000000     0.167960000000     0.423320000000     0.0453834  
H37      H      0.985980000000     0.222830000000     0.521410000000     0.0398474  
H38      H      0.952120000000     0.196470000000     0.540760000000     0.0677389  
H39      H      0.029690000000     0.222240000000     0.522560000000     0.0441379  
H40      H      0.952410000000     0.195170000000     0.401930000000     0.122936   
H41      H      0.064610000000     0.191180000000     0.405640000000     0.0591181  
H42      H      0.062230000000     0.196400000000     0.544270000000     0.0580616  
H43      H      0.985860000000     0.168750000000     0.421940000000     0.0474075  
H44      H      0.105540000000     0.193440000000     0.546730000000     0.0346822  
H45      H      0.683800000000     0.742910000000     0.875470000000     0.0336736  
H46      H      0.829280000000     0.783130000000     0.607380000000     0.0282337  
H47      H      0.736120000000     0.788810000000     0.796630000000     0.0449062  
H48      H      0.779220000000     0.738130000000     0.691050000000     0.0394396  
H49      H      0.811980000000     0.764700000000     0.670940000000     0.0667204  
H50      H      0.760670000000     0.719310000000     0.753620000000     0.0434993  
H51      H      0.749760000000     0.810020000000     0.656480000000     0.120633   
H52      H      0.702740000000     0.762260000000     0.814180000000     0.0588599  
H53      H      0.764540000000     0.716580000000     0.831800000000     0.0574704  
H54      H      0.754710000000     0.807660000000     0.734100000000     0.0442365  
H55      H      0.744870000000     0.697380000000     0.892500000000     0.032509   
H56      H      0.736350000000     0.687240000000     0.103580000000     0.0401989  
H57      H      0.769680000000     0.793650000000     0.414900000000     0.0321551  
H58      H      0.783590000000     0.737690000000     0.184160000000     0.0450913  
H59      H      0.733760000000     0.785770000000     0.283900000000     0.0417822  
H60      H      0.751510000000     0.774840000000     0.352630000000     0.0689455  
H61      H      0.715070000000     0.766930000000     0.221570000000     0.04729    
H62      H      0.812930000000     0.794850000000     0.276670000000     0.120772   
H63      H      0.755760000000     0.705780000000     0.165220000000     0.0608604  
H64      H      0.713830000000     0.769940000000     0.143680000000     0.0606187  
H65      H      0.802130000000     0.755770000000     0.247530000000     0.044133   
H66      H      0.694490000000     0.750640000000     0.082780000000     0.0381552  
H67      H      0.804560000000     0.187660000000     0.615650000000     0.0333583  
H68      H      0.683590000000     0.305830000000     0.825850000000     0.0288014  
H69      H      0.793940000000     0.235180000000     0.734000000000     0.044873   
H70      H      0.730930000000     0.296420000000     0.707460000000     0.0388493  
H71      H      0.703300000000     0.287960000000     0.764490000000     0.0665659  
H72      H      0.749930000000     0.276830000000     0.646510000000     0.0428055  
H73      H      0.770690000000     0.291300000000     0.832680000000     0.120536   
H74      H      0.786300000000     0.207000000000     0.677290000000     0.0582468  
H75      H      0.787080000000     0.274540000000     0.608290000000     0.0574202  
H76      H      0.774070000000     0.253880000000     0.794980000000     0.0447056  
H77      H      0.804700000000     0.254420000000     0.546890000000     0.0320137  
H78      H      0.771820000000     0.187140000000     0.363570000000     0.0335836  
H79      H      0.737540000000     0.326000000000     0.079740000000     0.0337689  
H80      H      0.757310000000     0.211890000000     0.224440000000     0.0467646  
H81      H      0.746320000000     0.300330000000     0.217890000000     0.039944   
H82      H      0.755550000000     0.307290000000     0.142410000000     0.0693441  
H83      H      0.765200000000     0.282290000000     0.281050000000     0.0438665  
H84      H      0.702230000000     0.251270000000     0.137350000000     0.120599   
H85      H      0.751200000000     0.204420000000     0.301610000000     0.0592304  
H86      H      0.802670000000     0.262320000000     0.299660000000     0.0604079  
H87      H      0.738390000000     0.229980000000     0.161090000000     0.0457205  
H88      H      0.822530000000     0.244780000000     0.361850000000     0.0388355  
H89      H      0.686020000000     0.409940000000     0.037390000000     0.03462    
H90      H      0.686230000000     0.611540000000     0.913670000000     0.0274745  
H91      H      0.713720000000     0.486670000000     0.022390000000     0.0449766  
H92      H      0.662320000000     0.533020000000     0.921230000000     0.0390658  
H93      H      0.688220000000     0.568130000000     0.908120000000     0.0662307  
H94      H      0.662330000000     0.489230000000     0.917980000000     0.0428191  
H95      H      0.685860000000     0.562700000000     0.046600000000     0.120895   
H96      H      0.687660000000     0.453440000000     0.038740000000     0.0588626  
H97      H      0.686450000000     0.454550000000     0.899690000000     0.0572697  
H98      H      0.713520000000     0.530440000000     0.025840000000     0.044162   
H99      H      0.684250000000     0.410880000000     0.899660000000     0.0318567  
H100     H      0.329280000000     0.709910000000     0.846890000000     0.0334633  
H101     H      0.210080000000     0.828150000000     0.630130000000     0.0365579  
H102     H      0.282430000000     0.719290000000     0.726740000000     0.0446606  
H103     H      0.219960000000     0.781280000000     0.749960000000     0.040296   
H104     H      0.228450000000     0.809050000000     0.692210000000     0.0693899  
H105     H      0.239510000000     0.762710000000     0.811980000000     0.0442933  
H106     H      0.226080000000     0.740990000000     0.626300000000     0.120223   
H107     H      0.310050000000     0.728060000000     0.784490000000     0.0586438  
H108     H      0.242200000000     0.725110000000     0.850590000000     0.0583445  
H109     H      0.263670000000     0.738670000000     0.664710000000     0.0444511  
H110     H      0.262170000000     0.707530000000     0.912760000000     0.0333253  
H111     H      0.242200000000     0.826700000000     0.384190000000     0.036067   
H112     H      0.273060000000     0.688300000000     0.100500000000     0.0368632  
H113     H      0.257700000000     0.802210000000     0.245650000000     0.0450996  
H114     H      0.263710000000     0.713330000000     0.238650000000     0.0425687  
H115     H      0.255440000000     0.707260000000     0.162770000000     0.0692098  
H116     H      0.244870000000     0.731970000000     0.300770000000     0.0468126  
H117     H      0.311580000000     0.760510000000     0.161110000000     0.120768   
H118     H      0.262890000000     0.808740000000     0.323430000000     0.0603908  
H119     H      0.208250000000     0.753970000000     0.316930000000     0.0599556  
H120     H      0.276530000000     0.783530000000     0.183310000000     0.0442026  
H121     H      0.188320000000     0.772150000000     0.377890000000     0.0381398  
H122     H      0.407930000000     0.652710000000     0.031740000000     0.0354697  
H123     H      0.601920000000     0.682830000000     0.928070000000     0.0278087  
H124     H      0.484430000000     0.675420000000     0.065830000000     0.0464935  
H125     H      0.525190000000     0.710370000000     0.938470000000     0.0397669  
H126     H      0.558630000000     0.683970000000     0.930640000000     0.0663367  
H127     H      0.481640000000     0.708950000000     0.940080000000     0.0437065  
H128     H      0.562370000000     0.701220000000     0.065850000000     0.12169    
H129     H      0.451270000000     0.655320000000     0.033240000000     0.0589216  
H130     H      0.446940000000     0.725520000000     0.973890000000     0.0604457  
H131     H      0.528000000000     0.675620000000     0.063150000000     0.0454138  
H132     H      0.403600000000     0.721910000000     0.971740000000     0.0387077  
H133     H      0.187840000000     0.226930000000     0.612890000000     0.0365055  
H134     H      0.312720000000     0.321910000000     0.837700000000     0.0279076  
H135     H      0.226820000000     0.225750000000     0.744580000000     0.0449948  
H136     H      0.305570000000     0.265940000000     0.726910000000     0.040445   
H137     H      0.296210000000     0.301570000000     0.775320000000     0.067395   
H138     H      0.285920000000     0.247830000000     0.664270000000     0.0455388  
H139     H      0.283840000000     0.238520000000     0.853170000000     0.121218   
H140     H      0.208380000000     0.242730000000     0.675760000000     0.0598143  
H141     H      0.272870000000     0.206250000000     0.636730000000     0.0593206  
H142     H      0.246410000000     0.243870000000     0.807090000000     0.0443324  
H143     H      0.251650000000     0.190490000000     0.574110000000     0.0328466  
H144     H      0.330130000000     0.301280000000     0.129890000000     0.0441992  
H145     H      0.209760000000     0.187000000000     0.342030000000     0.0292361  
H146     H      0.283080000000     0.295670000000     0.250970000000     0.0453318  
H147     H      0.217440000000     0.237210000000     0.225730000000     0.0405055  
H148     H      0.227010000000     0.207540000000     0.280700000000     0.0677678  
H149     H      0.237070000000     0.256090000000     0.164330000000     0.0464357  
H150     H      0.226500000000     0.273870000000     0.352090000000     0.11984    
H151     H      0.309820000000     0.285030000000     0.192540000000     0.0616627  
H152     H      0.241990000000     0.294330000000     0.127340000000     0.0595466  
H153     H      0.264040000000     0.276080000000     0.312370000000     0.0441245  
H154     H      0.262980000000     0.310110000000     0.064910000000     0.0361945  
H155     H      0.601360000000     0.351350000000     0.018340000000     0.0332226  
H156     H      0.408990000000     0.335770000000     0.919210000000     0.0275883  
H157     H      0.527810000000     0.317350000000     0.045880000000     0.0461676  
H158     H      0.485280000000     0.303840000000     0.907430000000     0.0397987  
H159     H      0.452200000000     0.332300000000     0.917560000000     0.066235   
H160     H      0.528960000000     0.306220000000     0.908270000000     0.043474   
H161     H      0.449930000000     0.288650000000     0.032520000000     0.121665   
H162     H      0.558290000000     0.345730000000     0.020060000000     0.0582726  
H163     H      0.565400000000     0.285380000000     0.934160000000     0.0601569  
H164     H      0.484150000000     0.315660000000     0.044870000000     0.0446739  
H165     H      0.608540000000     0.291690000000     0.932870000000     0.037215   
H166     H      0.290820000000     0.402590000000     0.962400000000     0.0326006  
H167     H      0.335010000000     0.603890000000     0.920080000000     0.0262449  
H168     H      0.286520000000     0.481490000000     0.012260000000     0.0447953  
H169     H      0.356220000000     0.526730000000     0.955120000000     0.0394027  
H170     H      0.333570000000     0.560280000000     0.917600000000     0.066388   
H171     H      0.357420000000     0.482840000000     0.957120000000     0.0434107  
H172     H      0.307290000000     0.559030000000     0.047920000000     0.120875   
H173     H      0.287960000000     0.446270000000     0.960170000000     0.058093   
H174     H      0.358790000000     0.451040000000     0.015510000000     0.0584545  
H175     H      0.285250000000     0.525470000000     0.010000000000     0.0437991  
H176     H      0.361010000000     0.407450000000     0.017490000000     0.032923   
In1      In     0.333160000000     0.329020000000     0.985120000000     2.41898    
In2      In     0.330380000000     0.679290000000     0.990320000000     2.41385    
In3      In     0.679860000000     0.334240000000     0.969270000000     2.41858    
In4      In     0.679890000000     0.685180000000     0.988550000000     2.42509    
In5      In     0.832980000000     0.186010000000     0.471270000000     2.41667    
In6      In     0.830030000000     0.837000000000     0.488640000000     2.42205    
In7      In     0.179350000000     0.830240000000     0.487820000000     2.41566    
In8      In     0.182160000000     0.181050000000     0.485350000000     2.41238    
N1       N      0.187600000000     0.903040000000     0.481600000000    -0.244574   
N2       N      0.188890000000     0.108070000000     0.491020000000    -0.195299   
N3       N      0.902750000000     0.830100000000     0.496050000000    -0.244171   
N4       N      0.106780000000     0.822900000000     0.494480000000    -0.194697   
N5       N      0.823920000000     0.113300000000     0.466940000000    -0.244223   
N6       N      0.817650000000     0.909040000000     0.481720000000    -0.191483   
N7       N      0.905620000000     0.193680000000     0.470810000000    -0.243658   
N8       N      0.109800000000     0.190180000000     0.478340000000    -0.194131   
N9       N      0.799810000000     0.807120000000     0.595690000000    -0.24505    
N10      N      0.712940000000     0.718740000000     0.888220000000    -0.194933   
N11      N      0.801590000000     0.804860000000     0.382050000000    -0.244658   
N12      N      0.713980000000     0.717570000000     0.088950000000    -0.191916   
N13      N      0.715410000000     0.308350000000     0.864640000000    -0.244508   
N14      N      0.805800000000     0.219610000000     0.576850000000    -0.195247   
N15      N      0.709760000000     0.299610000000     0.072290000000    -0.244191   
N16      N      0.798580000000     0.214750000000     0.367120000000    -0.193759   
N17      N      0.684970000000     0.612110000000     0.982780000000    -0.244539   
N18      N      0.684940000000     0.407330000000     0.968460000000    -0.194868   
N19      N      0.207880000000     0.795920000000     0.592480000000    -0.24326    
N20      N      0.297120000000     0.707520000000     0.884270000000    -0.195234   
N21      N      0.302150000000     0.713340000000     0.094670000000    -0.243093   
N22      N      0.213850000000     0.800680000000     0.385390000000    -0.193389   
N23      N      0.607060000000     0.690770000000     0.995100000000    -0.244759   
N24      N      0.402710000000     0.687010000000     0.001330000000    -0.192628   
N25      N      0.307770000000     0.292180000000     0.881100000000    -0.245486   
N26      N      0.218270000000     0.207580000000     0.589100000000    -0.193857   
N27      N      0.208470000000     0.218250000000     0.382360000000    -0.244834   
N28      N      0.298030000000     0.306660000000     0.092850000000    -0.191149   
N29      N      0.404600000000     0.314820000000     0.976890000000    -0.243481   
N30      N      0.607980000000     0.322010000000     0.975340000000    -0.193392   
N31      N      0.322380000000     0.606490000000     0.985130000000    -0.245045   
N32      N      0.326150000000     0.401950000000     0.989820000000    -0.195575   
O1       O      0.298990000000     0.320640000000     0.022660000000    -0.492229   
O2       O      0.332320000000     0.316300000000     0.055090000000    -0.475029   
O3       O      0.322350000000     0.326290000000     0.914330000000    -0.505573   
O4       O      0.312230000000     0.363930000000     0.973380000000    -0.496714   
O5       O      0.367290000000     0.310250000000     0.008320000000    -0.443257   
O6       O      0.346180000000     0.366460000000     0.003910000000    -0.505493   
O7       O      0.319200000000     0.294870000000     0.952720000000    -0.461386   
O8       O      0.369430000000     0.331980000000     0.952110000000    -0.505449   
O9       O      0.297240000000     0.692800000000     0.953940000000    -0.504064   
O10      O      0.330390000000     0.693360000000     0.920910000000    -0.495089   
O11      O      0.302580000000     0.683410000000     0.043340000000    -0.484718   
O12      O      0.320870000000     0.643070000000     0.020190000000    -0.451214   
O13      O      0.365120000000     0.700400000000     0.980910000000    -0.480564   
O14      O      0.331020000000     0.643440000000     0.954400000000    -0.509286   
O15      O      0.330310000000     0.709390000000     0.040500000000    -0.459358   
O16      O      0.367270000000     0.666580000000     0.012780000000    -0.497421   
O17      O      0.681530000000     0.303080000000     0.017680000000    -0.462353   
O18      O      0.707960000000     0.330330000000     0.022170000000    -0.492528   
O19      O      0.681340000000     0.321750000000     0.899280000000    -0.497048   
O20      O      0.646170000000     0.312840000000     0.951960000000    -0.481732   
O21      O      0.683290000000     0.370460000000     0.002550000000    -0.493128   
O22      O      0.642290000000     0.342930000000     0.993260000000    -0.502647   
O23      O      0.713850000000     0.322090000000     0.934870000000    -0.462165   
O24      O      0.681870000000     0.370580000000     0.934210000000    -0.501999   
O25      O      0.707460000000     0.685570000000     0.043090000000    -0.484003   
O26      O      0.686500000000     0.717030000000     0.033110000000    -0.491239   
O27      O      0.711550000000     0.690710000000     0.943240000000    -0.50251    
O28      O      0.683570000000     0.649930000000     0.951780000000    -0.50603    
O29      O      0.645050000000     0.691470000000     0.025340000000    -0.45492    
O30      O      0.681740000000     0.647990000000     0.019930000000    -0.45248    
O31      O      0.681180000000     0.713280000000     0.934750000000    -0.498384   
O32      O      0.642510000000     0.685040000000     0.958240000000    -0.505122   
O33      O      0.803220000000     0.185870000000     0.420240000000    -0.498802   
O34      O      0.828320000000     0.214510000000     0.418950000000    -0.486095   
O35      O      0.820380000000     0.186260000000     0.541350000000    -0.495064   
O36      O      0.810910000000     0.151830000000     0.482310000000    -0.493072   
O37      O      0.868770000000     0.190000000000     0.437130000000    -0.4462     
O38      O      0.845560000000     0.148150000000     0.455290000000    -0.457064   
O39      O      0.819400000000     0.219210000000     0.506710000000    -0.505677   
O40      O      0.869090000000     0.190680000000     0.505490000000    -0.505964   
O41      O      0.800710000000     0.816030000000     0.453650000000    -0.505041   
O42      O      0.831450000000     0.825850000000     0.417800000000    -0.455318   
O43      O      0.830170000000     0.810770000000     0.545580000000    -0.506288   
O44      O      0.864610000000     0.814830000000     0.485180000000    -0.491329   
O45      O      0.819530000000     0.871110000000     0.451790000000    -0.490009   
O46      O      0.867560000000     0.851920000000     0.499670000000    -0.461477   
O47      O      0.800030000000     0.833610000000     0.538010000000    -0.456561   
O48      O      0.826810000000     0.874150000000     0.518800000000    -0.478646   
O49      O      0.192990000000     0.796670000000     0.522750000000    -0.461644   
O50      O      0.193440000000     0.829590000000     0.556990000000    -0.485378   
O51      O      0.183240000000     0.802180000000     0.435050000000    -0.487696   
O52      O      0.142360000000     0.826000000000     0.457240000000    -0.491737   
O53      O      0.199090000000     0.865040000000     0.504500000000    -0.448346   
O54      O      0.144340000000     0.826340000000     0.525530000000    -0.500457   
O55      O      0.209970000000     0.829240000000     0.438860000000    -0.497093   
O56      O      0.168870000000     0.867480000000     0.463100000000    -0.510127   
O57      O      0.194660000000     0.215750000000     0.452550000000    -0.464184   
O58      O      0.195120000000     0.183630000000     0.415940000000    -0.498739   
O59      O      0.185010000000     0.204360000000     0.545190000000    -0.488125   
O60      O      0.145610000000     0.187770000000     0.515490000000    -0.486099   
O61      O      0.200550000000     0.145690000000     0.467110000000    -0.490565   
O62      O      0.146960000000     0.184210000000     0.447480000000    -0.499407   
O63      O      0.215740000000     0.184150000000     0.527820000000    -0.50105    
O64      O      0.171610000000     0.144010000000     0.511040000000    -0.507819   


