data_structure

_audit_creation_method RASPA-1.0
_audit_creation_date 2023-5-22
_audit_author_name 'Poobodin Mano'

_cell_length_a    44.2347
_cell_length_b    46.1321
_cell_length_c    45.0418
_cell_angle_alpha 90
_cell_angle_beta  90
_cell_angle_gamma 90
_cell_volume      91914.1

_symmetry_cell_setting          triclinic
_symmetry_space_group_name_Hall 'P 1'
_symmetry_space_group_name_H-M  'P 1'
_symmetry_Int_Tables_number     1

_symmetry_equiv_pos_as_xyz 'x,y,z'

loop_
_atom_site_label
_atom_site_type_symbol
_atom_site_fract_x
_atom_site_fract_y
_atom_site_fract_z
_atom_site_charge
C1       C      0.934520000000     0.414500000000     0.927700000000     0.413282   
C2       C      0.863190000000     0.412090000000     0.859070000000     0.417244   
C3       C      0.936730000000     0.346570000000     0.857510000000     0.416753   
C4       C      0.866390000000     0.344340000000     0.927170000000     0.411417   
C5       C      0.114200000000     0.597280000000     0.107870000000     0.412396   
C6       C      0.117850000000     0.664020000000     0.177500000000     0.413456   
C7       C      0.189580000000     0.597980000000     0.175200000000     0.416284   
C8       C      0.185670000000     0.662410000000     0.103800000000     0.414159   
C9       C      0.367820000000     0.845470000000     0.926530000000     0.414548   
C10      C      0.436850000000     0.845610000000     0.856750000000     0.410707   
C11      C      0.368360000000     0.913020000000     0.853940000000     0.413391   
C12      C      0.434950000000     0.916480000000     0.925180000000     0.416      
C13      C      0.686770000000     0.161180000000     0.107100000000     0.414252   
C14      C      0.619190000000     0.160750000000     0.180140000000     0.413006   
C15      C      0.616610000000     0.096230000000     0.106340000000     0.414866   
C16      C      0.687380000000     0.093020000000     0.177680000000     0.417887   
C17      C      0.369800000000     0.416630000000     0.356440000000     0.412001   
C18      C      0.435180000000     0.340220000000     0.358870000000     0.413044   
C19      C      0.434400000000     0.417700000000     0.422290000000     0.410589   
C20      C      0.369380000000     0.342770000000     0.424450000000     0.409305   
C21      C      0.683400000000     0.593550000000     0.677620000000     0.415549   
C22      C      0.617160000000     0.663850000000     0.676440000000     0.413923   
C23      C      0.684810000000     0.662850000000     0.606460000000     0.412632   
C24      C      0.616000000000     0.594810000000     0.605970000000     0.413501   
C25      C      0.939180000000     0.845610000000     0.359430000000     0.41153    
C26      C      0.868510000000     0.912890000000     0.359230000000     0.416438   
C27      C      0.866250000000     0.843630000000     0.426160000000     0.413495   
C28      C      0.938490000000     0.910910000000     0.430480000000     0.417716   
C29      C      0.119890000000     0.169300000000     0.674600000000     0.410924   
C30      C      0.186300000000     0.093240000000     0.673530000000     0.409802   
C31      C      0.118710000000     0.093040000000     0.610400000000     0.412957   
C32      C      0.185890000000     0.168580000000     0.609530000000     0.410924   
C33      C      0.983130000000     0.938400000000     0.438630000000     0.0762772  
C34      C      0.001360000000     0.955510000000     0.456890000000    -0.0944612  
C35      C      0.992150000000     0.961820000000     0.485940000000     0.0509069  
C36      C      0.964650000000     0.950450000000     0.496050000000    -0.0944844  
C37      C      0.947070000000     0.933260000000     0.477240000000     0.0756353  
C38      C      0.011010000000     0.980420000000     0.505460000000    -0.00639874 
C39      C      0.042530000000     0.976830000000     0.506460000000    -0.0350382  
C40      C      0.060330000000     0.994700000000     0.524400000000    -0.0346638  
C41      C      0.047040000000     0.016690000000     0.541660000000    -0.00657798 
C42      C      0.015460000000     0.020110000000     0.540800000000    -0.0345134  
C43      C      0.997650000000     0.002140000000     0.522970000000    -0.0350456  
C44      C      0.066090000000     0.036300000000     0.560050000000     0.0507411  
C45      C      0.094020000000     0.046280000000     0.549490000000    -0.0940981  
C46      C      0.111430000000     0.065060000000     0.566750000000     0.0756824  
C47      C      0.074370000000     0.064460000000     0.604780000000     0.0753813  
C48      C      0.056420000000     0.045550000000     0.588150000000    -0.0941007  
C49      C      0.855240000000     0.797270000000     0.446290000000     0.0752956  
C50      C      0.837320000000     0.779050000000     0.463680000000    -0.0943325  
C51      C      0.811510000000     0.790010000000     0.477790000000     0.0509181  
C52      C      0.804210000000     0.819310000000     0.473770000000    -0.094367   
C53      C      0.822680000000     0.836940000000     0.456250000000     0.0761063  
C54      C      0.792500000000     0.771020000000     0.496800000000    -0.00654499 
C55      C      0.805970000000     0.750870000000     0.516130000000    -0.0348576  
C56      C      0.788150000000     0.733020000000     0.534070000000    -0.0347568  
C57      C      0.756450000000     0.734880000000     0.533100000000    -0.00658928 
C58      C      0.742980000000     0.755040000000     0.513780000000    -0.0347654  
C59      C      0.760800000000     0.772910000000     0.495850000000    -0.0348574  
C60      C      0.737540000000     0.715920000000     0.552250000000     0.0509641  
C61      C      0.745150000000     0.686730000000     0.556590000000    -0.094449   
C62      C      0.727220000000     0.669260000000     0.574790000000     0.0764196  
C63      C      0.694380000000     0.708760000000     0.584540000000     0.0752923  
C64      C      0.711770000000     0.726840000000     0.566470000000    -0.0943123  
C65      C      0.324920000000     0.314990000000     0.432460000000     0.0755282  
C66      C      0.306630000000     0.297970000000     0.450760000000    -0.0940969  
C67      C      0.316150000000     0.291080000000     0.479580000000     0.0508064  
C68      C      0.344310000000     0.301340000000     0.489200000000    -0.0941277  
C69      C      0.362000000000     0.318360000000     0.470330000000     0.0755868  
C70      C      0.296670000000     0.273520000000     0.499570000000    -0.00645157 
C71      C      0.265300000000     0.278270000000     0.500600000000    -0.0348056  
C72      C      0.246920000000     0.261700000000     0.519270000000    -0.0347817  
C73      C      0.259470000000     0.239970000000     0.537350000000    -0.00647131 
C74      C      0.290870000000     0.235330000000     0.536450000000    -0.0347127  
C75      C      0.309260000000     0.251920000000     0.517790000000    -0.0348544  
C76      C      0.239810000000     0.221900000000     0.556700000000     0.050799   
C77      C      0.211750000000     0.211930000000     0.546480000000    -0.0941493  
C78      C      0.193850000000     0.194400000000     0.564620000000     0.0758554  
C79      C      0.230520000000     0.196550000000     0.602950000000     0.0755903  
C80      C      0.249020000000     0.214120000000     0.585390000000    -0.0940494  
C81      C      0.479350000000     0.444900000000     0.429590000000     0.0759986  
C82      C      0.497350000000     0.463090000000     0.446930000000    -0.0943597  
C83      C      0.486810000000     0.472900000000     0.474490000000     0.0509722  
C84      C      0.457870000000     0.464430000000     0.483720000000    -0.0940927  
C85      C      0.440430000000     0.446260000000     0.465770000000     0.0756982  
C86      C      0.506100000000     0.491470000000     0.493710000000    -0.00655324 
C87      C      0.537300000000     0.486070000000     0.496190000000    -0.0346571  
C88      C      0.555420000000     0.503250000000     0.514500000000    -0.03484    
C89      C      0.542770000000     0.526170000000     0.530860000000    -0.00659515 
C90      C      0.511600000000     0.531630000000     0.528380000000    -0.0349347  
C91      C      0.493490000000     0.514500000000     0.509980000000    -0.0347488  
C92      C      0.562000000000     0.544220000000     0.550570000000     0.0510645  
C93      C      0.590680000000     0.553410000000     0.541330000000    -0.0944249  
C94      C      0.608480000000     0.570340000000     0.560170000000     0.0752303  
C95      C      0.570340000000     0.569160000000     0.597160000000     0.0764221  
C96      C      0.551900000000     0.552310000000     0.578850000000    -0.0946118  
C97      C      0.703720000000     0.046030000000     0.192080000000     0.0757043  
C98      C      0.721380000000     0.027900000000     0.209850000000    -0.0941496  
C99      C      0.740840000000     0.039820000000     0.231170000000     0.0508717  
C100     C      0.741910000000     0.070070000000     0.234070000000    -0.0942924  
C101     C      0.723800000000     0.087550000000     0.216030000000     0.0763468  
C102     C      0.759880000000     0.020830000000     0.250270000000    -0.00654567 
C103     C      0.773320000000     0.995630000000     0.238640000000    -0.0345893  
C104     C      0.791120000000     0.977770000000     0.256600000000    -0.034917   
C105     C      0.796060000000     0.984770000000     0.286570000000    -0.00657773 
C106     C      0.782720000000     0.009960000000     0.298220000000    -0.0349563  
C107     C      0.764770000000     0.027740000000     0.280320000000    -0.0347118  
C108     C      0.815100000000     0.965880000000     0.305610000000     0.0512039  
C109     C      0.812130000000     0.935660000000     0.304550000000    -0.094769   
C110     C      0.830140000000     0.918240000000     0.322740000000     0.0769743  
C111     C      0.854200000000     0.959830000000     0.342730000000     0.0759165  
C112     C      0.836410000000     0.977900000000     0.325030000000    -0.0944955  
C113     C      0.582010000000     0.164820000000     0.217970000000     0.0761986  
C114     C      0.563620000000     0.181630000000     0.236380000000    -0.0946391  
C115     C      0.565420000000     0.211930000000     0.235230000000     0.0510355  
C116     C      0.585950000000     0.224650000000     0.215450000000    -0.0944521  
C117     C      0.603860000000     0.207180000000     0.197240000000     0.0755113  
C118     C      0.545860000000     0.230200000000     0.254400000000    -0.00670108 
C119     C      0.515080000000     0.223500000000     0.258100000000    -0.0348013  
C120     C      0.496550000000     0.241000000000     0.275730000000    -0.034891   
C121     C      0.508460000000     0.265460000000     0.290220000000    -0.00668125 
C122     C      0.539280000000     0.272010000000     0.286700000000    -0.0347641  
C123     C      0.557760000000     0.254630000000     0.268920000000    -0.034868   
C124     C      0.488770000000     0.284290000000     0.308680000000     0.0509597  
C125     C      0.459890000000     0.292280000000     0.298860000000    -0.0944353  
C126     C      0.442110000000     0.310820000000     0.316080000000     0.0755706  
C127     C      0.480450000000     0.313210000000     0.352800000000     0.0757181  
C128     C      0.498890000000     0.294860000000     0.336090000000    -0.0945466  
C129     C      0.357310000000     0.958730000000     0.832220000000     0.075591   
C130     C      0.339720000000     0.976200000000     0.813710000000    -0.09418    
C131     C      0.315490000000     0.964150000000     0.797890000000     0.0509665  
C132     C      0.309670000000     0.934440000000     0.801090000000    -0.0944654  
C133     C      0.327660000000     0.917640000000     0.819880000000     0.076877   
C134     C      0.296200000000     0.982530000000     0.778450000000    -0.00644673 
C135     C      0.264730000000     0.978330000000     0.777400000000    -0.0347186  
C136     C      0.246530000000     0.995910000000     0.759540000000    -0.0347707  
C137     C      0.259330000000     0.018200000000     0.742350000000    -0.00646877 
C138     C      0.290820000000     0.022280000000     0.743250000000    -0.0346788  
C139     C      0.309030000000     0.004640000000     0.761040000000    -0.0347668  
C140     C      0.239870000000     0.037400000000     0.723940000000     0.0507848  
C141     C      0.211770000000     0.046930000000     0.734500000000    -0.0941495  
C142     C      0.194010000000     0.065390000000     0.717200000000     0.0757315  
C143     C      0.231020000000     0.065250000000     0.679130000000     0.0755385  
C144     C      0.249330000000     0.046700000000     0.695800000000    -0.0941438  
C145     C      0.447020000000     0.823410000000     0.810250000000     0.0750967  
C146     C      0.464710000000     0.805530000000     0.792260000000    -0.0942594  
C147     C      0.490570000000     0.792180000000     0.803920000000     0.0509677  
C148     C      0.498040000000     0.797260000000     0.833690000000    -0.0944307  
C149     C      0.479800000000     0.815220000000     0.851070000000     0.0763659  
C150     C      0.509580000000     0.773010000000     0.785120000000    -0.00659347 
C151     C      0.496140000000     0.753290000000     0.765320000000    -0.0348483  
C152     C      0.513990000000     0.735330000000     0.747540000000    -0.0347883  
C153     C      0.545700000000     0.736680000000     0.749110000000    -0.00659741 
C154     C      0.559150000000     0.756340000000     0.768980000000    -0.0347747  
C155     C      0.541290000000     0.774290000000     0.786780000000    -0.0347956  
C156     C      0.564640000000     0.717700000000     0.730010000000     0.0511439  
C157     C      0.556670000000     0.712560000000     0.700370000000    -0.0946817  
C158     C      0.574560000000     0.694530000000     0.682750000000     0.0770545  
C159     C      0.608180000000     0.686580000000     0.722950000000     0.0755611  
C160     C      0.590800000000     0.704500000000     0.741210000000    -0.09429    
C161     C      0.440660000000     0.944980000000     0.968770000000     0.0758097  
C162     C      0.457770000000     0.963480000000     0.986670000000    -0.0941365  
C163     C      0.486960000000     0.971700000000     0.977880000000     0.0509092  
C164     C      0.498120000000     0.961070000000     0.950860000000    -0.0943471  
C165     C      0.480310000000     0.942770000000     0.933430000000     0.0765851  
C166     C      0.505770000000     0.991010000000     0.996870000000    -0.00648651 
C167     C      0.505160000000     0.988370000000     0.027980000000    -0.0346414  
C168     C      0.523080000000     0.006270000000     0.045780000000    -0.0349625  
C169     C      0.542200000000     0.027080000000     0.032900000000    -0.00658022 
C170     C      0.542850000000     0.029790000000     0.001850000000    -0.0350758  
C171     C      0.524760000000     0.012050000000     0.984040000000    -0.0346559  
C172     C      0.561590000000     0.045720000000     0.051840000000     0.0511257  
C173     C      0.549990000000     0.058590000000     0.077580000000    -0.094589   
C174     C      0.568660000000     0.075720000000     0.095390000000     0.0756419  
C175     C      0.610050000000     0.067600000000     0.062970000000     0.0763104  
C176     C      0.591950000000     0.050550000000     0.044500000000    -0.0946669  
C177     C      0.072740000000     0.672360000000     0.204870000000     0.0749434  
C178     C      0.054890000000     0.689970000000     0.223020000000    -0.0943384  
C179     C      0.065410000000     0.717340000000     0.231690000000     0.0509573  
C180     C      0.094010000000     0.726280000000     0.221990000000    -0.0947167  
C181     C      0.111340000000     0.708040000000     0.204030000000     0.0763443  
C182     C      0.046660000000     0.736550000000     0.250680000000    -0.0067067  
C183     C      0.031050000000     0.725300000000     0.275300000000    -0.034908   
C184     C      0.013590000000     0.743450000000     0.293280000000    -0.0348121  
C185     C      0.011190000000     0.773200000000     0.286910000000    -0.00668305 
C186     C      0.026680000000     0.784410000000     0.262210000000    -0.0348921  
C187     C      0.044300000000     0.766300000000     0.244350000000    -0.034844   
C188     C      0.992550000000     0.792450000000     0.305950000000     0.0510134  
C189     C      0.993660000000     0.790140000000     0.336940000000    -0.0946599  
C190     C      0.975840000000     0.808310000000     0.354520000000     0.0765198  
C191     C      0.955750000000     0.830950000000     0.311560000000     0.0755929  
C192     C      0.973400000000     0.813260000000     0.293310000000    -0.0944148  
C193     C      0.361540000000     0.801590000000     0.953430000000     0.0750273  
C194     C      0.343970000000     0.783070000000     0.970860000000    -0.0942102  
C195     C      0.314500000000     0.791090000000     0.978840000000     0.0507299  
C196     C      0.303490000000     0.817950000000     0.969070000000    -0.0942841  
C197     C      0.321720000000     0.835960000000     0.951740000000     0.0759456  
C198     C      0.295340000000     0.771560000000     0.997190000000    -0.00651236 
C199     C      0.295740000000     0.741400000000     0.992600000000    -0.0347273  
C200     C      0.277620000000     0.723080000000     0.009770000000    -0.0349437  
C201     C      0.258590000000     0.734510000000     0.031840000000    -0.00657891 
C202     C      0.258200000000     0.764640000000     0.036470000000    -0.0348841  
C203     C      0.276390000000     0.782940000000     0.019390000000    -0.0347642  
C204     C      0.239230000000     0.715130000000     0.050060000000     0.05113    
C205     C      0.250530000000     0.688970000000     0.061320000000    -0.0943229  
C206     C      0.232200000000     0.671420000000     0.079080000000     0.0755839  
C207     C      0.191600000000     0.704680000000     0.074310000000     0.0769326  
C208     C      0.209330000000     0.722800000000     0.056620000000    -0.0947338  
C209     C      0.323610000000     0.440810000000     0.346020000000     0.0754887  
C210     C      0.306250000000     0.459380000000     0.328450000000    -0.0940363  
C211     C      0.319160000000     0.472900000000     0.303620000000     0.0506542  
C212     C      0.349620000000     0.467310000000     0.297170000000    -0.0940554  
C213     C      0.366260000000     0.448460000000     0.315120000000     0.0754832  
C214     C      0.300840000000     0.492430000000     0.284400000000    -0.00632338 
C215     C      0.279150000000     0.511110000000     0.296860000000    -0.0348429  
C216     C      0.261420000000     0.528910000000     0.278750000000    -0.0347171  
C217     C      0.265040000000     0.528610000000     0.247730000000    -0.00644762 
C218     C      0.286990000000     0.510180000000     0.235310000000    -0.0346652  
C219     C      0.304590000000     0.492270000000     0.253390000000    -0.0347094  
C220     C      0.245710000000     0.547110000000     0.228410000000     0.050839   
C221     C      0.237390000000     0.575150000000     0.237240000000    -0.0941283  
C222     C      0.218660000000     0.591930000000     0.219110000000     0.0753805  
C223     C      0.216530000000     0.554200000000     0.183430000000     0.0764148  
C224     C      0.235050000000     0.536770000000     0.201080000000    -0.0943737  
C225     C      0.982200000000     0.340530000000     0.830120000000     0.0753082  
C226     C      0.000750000000     0.324110000000     0.811470000000    -0.0938378  
C227     C      0.991580000000     0.296430000000     0.802270000000     0.0505402  
C228     C      0.963580000000     0.285990000000     0.812220000000    -0.0941     
C229     C      0.945500000000     0.303080000000     0.830650000000     0.0761588  
C230     C      0.011080000000     0.278500000000     0.782510000000    -0.00620457 
C231     C      0.042710000000     0.278650000000     0.785770000000    -0.0347302  
C232     C      0.060970000000     0.261560000000     0.767460000000    -0.0347834  
C233     C      0.048080000000     0.243680000000     0.745550000000    -0.00630328 
C234     C      0.016460000000     0.243650000000     0.742200000000    -0.0345903  
C235     C      0.998230000000     0.260900000000     0.760360000000    -0.0348159  
C236     C      0.067440000000     0.224810000000     0.726610000000     0.0505593  
C237     C      0.092980000000     0.210980000000     0.738430000000    -0.0938973  
C238     C      0.110510000000     0.192820000000     0.720580000000     0.075568   
C239     C      0.078260000000     0.201510000000     0.679500000000     0.0753854  
C240     C      0.060350000000     0.220020000000     0.696650000000    -0.0938852  
C241     C      0.818140000000     0.328960000000     0.944140000000     0.0754405  
C242     C      0.800070000000     0.310890000000     0.961590000000    -0.0941584  
C243     C      0.813480000000     0.289940000000     0.979870000000     0.0509201  
C244     C      0.845080000000     0.287720000000     0.980090000000    -0.0943273  
C245     C      0.862450000000     0.306100000000     0.962300000000     0.0765419  
C246     C      0.794620000000     0.270550000000     0.998630000000    -0.00650321 
C247     C      0.767740000000     0.258480000000     0.987450000000    -0.0347696  
C248     C      0.749990000000     0.240280000000     0.005100000000    -0.0348289  
C249     C      0.758670000000     0.233730000000     0.034380000000    -0.00648328 
C250     C      0.785550000000     0.245820000000     0.045560000000    -0.0347483  
C251     C      0.803320000000     0.263990000000     0.027890000000    -0.0348129  
C252     C      0.739750000000     0.214440000000     0.053240000000     0.0509844  
C253     C      0.708120000000     0.216350000000     0.052610000000    -0.0943356  
C254     C      0.690720000000     0.198250000000     0.070680000000     0.0766478  
C255     C      0.735040000000     0.176290000000     0.089940000000     0.075955   
C256     C      0.753130000000     0.194020000000     0.072160000000    -0.0942772  
C257     C      0.828230000000     0.450940000000     0.854670000000     0.0769451  
C258     C      0.809670000000     0.468760000000     0.837460000000    -0.094642   
C259     C      0.807680000000     0.464390000000     0.806730000000     0.0511191  
C260     C      0.824400000000     0.441730000000     0.794070000000    -0.0944059  
C261     C      0.842680000000     0.424280000000     0.811960000000     0.0759884  
C262     C      0.788560000000     0.483550000000     0.787930000000    -0.0065402  
C263     C      0.787300000000     0.513540000000     0.793370000000    -0.0347405  
C264     C      0.769680000000     0.531630000000     0.775480000000    -0.0347512  
C265     C      0.752940000000     0.520200000000     0.751670000000    -0.00652637 
C266     C      0.754090000000     0.490180000000     0.746320000000    -0.0347482  
C267     C      0.771670000000     0.472080000000     0.764240000000    -0.0347584  
C268     C      0.734550000000     0.539530000000     0.732360000000     0.050917   
C269     C      0.745360000000     0.566880000000     0.723960000000    -0.0944448  
C270     C      0.727900000000     0.584720000000     0.705700000000     0.0764686  
C271     C      0.689240000000     0.549160000000     0.703740000000     0.0753762  
C272     C      0.706080000000     0.530790000000     0.722030000000    -0.0942064  
C273     C      0.082060000000     0.556310000000     0.102970000000     0.0763298  
C274     C      0.063780000000     0.538240000000     0.085750000000    -0.0943759  
C275     C      0.059150000000     0.544440000000     0.055630000000     0.0508137  
C276     C      0.073000000000     0.569100000000     0.043590000000    -0.0940418  
C277     C      0.091190000000     0.586680000000     0.061450000000     0.0749982  
C278     C      0.040240000000     0.525130000000     0.036830000000    -0.00649691 
C279     C      0.042280000000     0.494840000000     0.039640000000    -0.0347982  
C280     C      0.024740000000     0.476650000000     0.021780000000    -0.0348094  
C281     C      0.004720000000     0.488310000000     0.000680000000    -0.00650727 
C282     C      0.002610000000     0.518610000000     0.997930000000    -0.0347036  
C283     C      0.020180000000     0.536800000000     0.015780000000    -0.0349068  
C284     C      0.986210000000     0.468940000000     0.981530000000     0.0506729  
C285     C      0.972910000000     0.443790000000     0.993120000000    -0.0939842  
C286     C      0.955680000000     0.425800000000     0.974790000000     0.0748562  
C287     C      0.964410000000     0.456870000000     0.933730000000     0.0759566  
C288     C      0.981760000000     0.475350000000     0.951430000000    -0.0942484  
H1       H      0.990920000000     0.934160000000     0.416220000000     0.0286912  
H2       H      0.022310000000     0.964140000000     0.448110000000     0.0543558  
H3       H      0.956870000000     0.954550000000     0.518460000000     0.0542419  
H4       H      0.925950000000     0.924820000000     0.485880000000     0.0287659  
H5       H      0.053440000000     0.960000000000     0.493560000000     0.0386815  
H6       H      0.084520000000     0.991100000000     0.524920000000     0.0383442  
H7       H      0.004500000000     0.037110000000     0.553420000000     0.0385906  
H8       H      0.973450000000     0.005690000000     0.522380000000     0.0388931  
H9       H      0.102230000000     0.040080000000     0.527740000000     0.0541035  
H10      H      0.132800000000     0.072430000000     0.557680000000     0.029815   
H11      H      0.066100000000     0.071170000000     0.626380000000     0.0288601  
H12      H      0.035220000000     0.038080000000     0.597410000000     0.0539626  
H13      H      0.875050000000     0.787970000000     0.435790000000     0.0294879  
H14      H      0.843550000000     0.756440000000     0.465820000000     0.0540781  
H15      H      0.784640000000     0.828750000000     0.484510000000     0.0542152  
H16      H      0.816440000000     0.859550000000     0.453860000000     0.0290356  
H17      H      0.830330000000     0.749190000000     0.517770000000     0.038692   
H18      H      0.799270000000     0.718060000000     0.549050000000     0.0385993  
H19      H      0.718610000000     0.756730000000     0.512180000000     0.0385851  
H20      H      0.749720000000     0.787910000000     0.480890000000     0.0385701  
H21      H      0.764640000000     0.677290000000     0.545720000000     0.0542743  
H22      H      0.733810000000     0.646780000000     0.577550000000     0.029811   
H23      H      0.674680000000     0.718050000000     0.595260000000     0.0289844  
H24      H      0.705280000000     0.749350000000     0.564050000000     0.0541184  
H25      H      0.316700000000     0.319950000000     0.410350000000     0.0298981  
H26      H      0.285240000000     0.290110000000     0.442250000000     0.0542162  
H27      H      0.352420000000     0.296770000000     0.511400000000     0.0542469  
H28      H      0.383500000000     0.326160000000     0.478700000000     0.0297734  
H29      H      0.254950000000     0.295080000000     0.487240000000     0.0388621  
H30      H      0.222880000000     0.266160000000     0.519780000000     0.0385398  
H31      H      0.301210000000     0.218460000000     0.549740000000     0.0387573  
H32      H      0.333290000000     0.247450000000     0.517230000000     0.0385618  
H33      H      0.203870000000     0.217120000000     0.524340000000     0.0542732  
H34      H      0.172440000000     0.186880000000     0.555760000000     0.0300246  
H35      H      0.238490000000     0.190880000000     0.624970000000     0.0292145  
H36      H      0.270340000000     0.221690000000     0.594350000000     0.0540585  
H37      H      0.488390000000     0.437630000000     0.408480000000     0.0298429  
H38      H      0.519350000000     0.469500000000     0.438670000000     0.0541795  
H39      H      0.448930000000     0.471230000000     0.505000000000     0.0541189  
H40      H      0.418310000000     0.439900000000     0.473840000000     0.0295674  
H41      H      0.547670000000     0.468200000000     0.484380000000     0.0387319  
H42      H      0.579270000000     0.498230000000     0.516280000000     0.0387395  
H43      H      0.501270000000     0.549400000000     0.540370000000     0.0386712  
H44      H      0.469640000000     0.519530000000     0.508250000000     0.0383635  
H45      H      0.599220000000     0.547890000000     0.519510000000     0.0541516  
H46      H      0.630490000000     0.577150000000     0.552180000000     0.0288412  
H47      H      0.561760000000     0.574910000000     0.618930000000     0.0296198  
H48      H      0.530020000000     0.545370000000     0.586990000000     0.0543803  
H49      H      0.688920000000     0.035960000000     0.175900000000     0.0286464  
H50      H      0.719430000000     0.004650000000     0.207100000000     0.0539479  
H51      H      0.756920000000     0.080300000000     0.249910000000     0.0540174  
H52      H      0.725330000000     0.110840000000     0.218920000000     0.0288213  
H53      H      0.770490000000     0.989890000000     0.215490000000     0.0385274  
H54      H      0.801440000000     0.958710000000     0.246880000000     0.0389128  
H55      H      0.785780000000     0.015710000000     0.321340000000     0.0387548  
H56      H      0.754360000000     0.046670000000     0.290180000000     0.0383905  
H57      H      0.795710000000     0.925520000000     0.290050000000     0.0544858  
H58      H      0.827090000000     0.894950000000     0.321390000000     0.0291908  
H59      H      0.870530000000     0.969940000000     0.357400000000     0.0287409  
H60      H      0.839630000000     0.001150000000     0.326290000000     0.0543246  
H61      H      0.579980000000     0.141440000000     0.219500000000     0.0294945  
H62      H      0.548290000000     0.170940000000     0.251600000000     0.0544289  
H63      H      0.587830000000     0.247990000000     0.213660000000     0.0544966  
H64      H      0.619310000000     0.217830000000     0.182050000000     0.0293303  
H65      H      0.505190000000     0.204960000000     0.246990000000     0.0388106  
H66      H      0.472940000000     0.235260000000     0.278210000000     0.0386026  
H67      H      0.549060000000     0.290860000000     0.297350000000     0.038902   
H68      H      0.581440000000     0.260200000000     0.266710000000     0.0386982  
H69      H      0.451320000000     0.284780000000     0.277690000000     0.0544723  
H70      H      0.420040000000     0.316820000000     0.307570000000     0.0289021  
H71      H      0.489150000000     0.321030000000     0.373840000000     0.0296157  
H72      H      0.520900000000     0.288890000000     0.344680000000     0.0543923  
H73      H      0.375730000000     0.968900000000     0.844220000000     0.0287812  
H74      H      0.344810000000     0.999120000000     0.812270000000     0.0541668  
H75      H      0.291490000000     0.924100000000     0.788960000000     0.0542824  
H76      H      0.322400000000     0.894750000000     0.821770000000     0.0299676  
H77      H      0.254030000000     0.961720000000     0.790750000000     0.0385234  
H78      H      0.222410000000     0.991920000000     0.759130000000     0.0384072  
H79      H      0.301420000000     0.039430000000     0.730550000000     0.0386217  
H80      H      0.333220000000     0.008270000000     0.761020000000     0.0384978  
H81      H      0.203710000000     0.040650000000     0.756270000000     0.0543016  
H82      H      0.172530000000     0.072440000000     0.726280000000     0.0300441  
H83      H      0.239170000000     0.072030000000     0.657500000000     0.0294008  
H84      H      0.270650000000     0.039540000000     0.686540000000     0.0541097  
H85      H      0.427230000000     0.833410000000     0.800400000000     0.0291745  
H86      H      0.458330000000     0.802500000000     0.769250000000     0.0540948  
H87      H      0.517630000000     0.787100000000     0.843690000000     0.0543223  
H88      H      0.486250000000     0.818520000000     0.874050000000     0.0300949  
H89      H      0.471780000000     0.751440000000     0.763860000000     0.0386267  
H90      H      0.502900000000     0.720090000000     0.732850000000     0.0385989  
H91      H      0.583510000000     0.758210000000     0.770420000000     0.0386162  
H92      H      0.552340000000     0.789530000000     0.801510000000     0.0386557  
H93      H      0.536890000000     0.722650000000     0.690670000000     0.0543307  
H94      H      0.567640000000     0.691120000000     0.659920000000     0.0299598  
H95      H      0.628170000000     0.676630000000     0.732450000000     0.0286558  
H96      H      0.597610000000     0.707610000000     0.764090000000     0.0540752  
H97      H      0.418210000000     0.939110000000     0.976350000000     0.0284463  
H98      H      0.448000000000     0.971500000000     0.007130000000     0.0538781  
H99      H      0.520690000000     0.966420000000     0.943350000000     0.0540855  
H100     H      0.489840000000     0.934930000000     0.912750000000     0.0294936  
H101     H      0.491250000000     0.972100000000     0.038630000000     0.0384062  
H102     H      0.522410000000     0.003420000000     0.069640000000     0.0389642  
H103     H      0.557070000000     0.045900000000     0.991320000000     0.0387689  
H104     H      0.525430000000     0.015070000000     0.960210000000     0.0384291  
H105     H      0.526550000000     0.055640000000     0.083840000000     0.0543961  
H106     H      0.558860000000     0.085310000000     0.115150000000     0.0294748  
H107     H      0.633520000000     0.070630000000     0.056730000000     0.028713   
H108     H      0.601840000000     0.040780000000     0.024910000000     0.0544474  
H109     H      0.063760000000     0.651410000000     0.198440000000     0.0287576  
H110     H      0.032780000000     0.682370000000     0.229820000000     0.0542747  
H111     H      0.103140000000     0.747120000000     0.228480000000     0.0544978  
H112     H      0.133380000000     0.715730000000     0.197010000000     0.0297473  
H113     H      0.032620000000     0.702520000000     0.280880000000     0.038716   
H114     H      0.001690000000     0.734130000000     0.312010000000     0.0387773  
H115     H      0.025460000000     0.807270000000     0.256870000000     0.0387038  
H116     H      0.055840000000     0.775550000000     0.225370000000     0.0386908  
H117     H      0.008430000000     0.774570000000     0.347600000000     0.0545028  
H118     H      0.977330000000     0.805870000000     0.378420000000     0.0299821  
H119     H      0.941030000000     0.846640000000     0.300950000000     0.0291754  
H120     H      0.971670000000     0.815570000000     0.269440000000     0.0543608  
H121     H      0.384210000000     0.794600000000     0.947710000000     0.0288067  
H122     H      0.353590000000     0.762740000000     0.978270000000     0.0539912  
H123     H      0.280730000000     0.824890000000     0.974360000000     0.054046   
H124     H      0.312320000000     0.856490000000     0.944490000000     0.0291827  
H125     H      0.309690000000     0.731930000000     0.975390000000     0.038456   
H126     H      0.278140000000     0.700000000000     0.005420000000     0.0387177  
H127     H      0.244150000000     0.774070000000     0.053630000000     0.0387735  
H128     H      0.275900000000     0.806000000000     0.023880000000     0.0385075  
H129     H      0.273600000000     0.682350000000     0.056970000000     0.0542306  
H130     H      0.241840000000     0.651510000000     0.087680000000     0.0286373  
H131     H      0.168610000000     0.711440000000     0.078980000000     0.029867   
H132     H      0.199570000000     0.742620000000     0.048000000000     0.0544204  
H133     H      0.312740000000     0.430660000000     0.364930000000     0.0297518  
H134     H      0.282700000000     0.462660000000     0.334070000000     0.0541177  
H135     H      0.360710000000     0.477600000000     0.278510000000     0.0540591  
H136     H      0.389730000000     0.444660000000     0.309360000000     0.0290623  
H137     H      0.275890000000     0.512120000000     0.320660000000     0.038311   
H138     H      0.244530000000     0.542550000000     0.289110000000     0.0383265  
H139     H      0.290710000000     0.509650000000     0.211550000000     0.0384677  
H140     H      0.320820000000     0.477940000000     0.242970000000     0.0385675  
H141     H      0.245450000000     0.584270000000     0.257930000000     0.0539507  
H142     H      0.212670000000     0.613470000000     0.226760000000     0.0285659  
H143     H      0.208610000000     0.545320000000     0.162540000000     0.0292757  
H144     H      0.240470000000     0.515110000000     0.193510000000     0.0541987  
H145     H      0.990060000000     0.361850000000     0.836660000000     0.028826   
H146     H      0.021960000000     0.333300000000     0.804030000000     0.0539328  
H147     H      0.955740000000     0.264550000000     0.806170000000     0.0540532  
H148     H      0.924020000000     0.294190000000     0.837860000000     0.0289117  
H149     H      0.053430000000     0.291670000000     0.802780000000     0.0383126  
H150     H      0.085230000000     0.262470000000     0.770460000000     0.0383279  
H151     H      0.005660000000     0.229920000000     0.725840000000     0.0385147  
H152     H      0.974010000000     0.260510000000     0.756880000000     0.0384795  
H153     H      0.099140000000     0.213640000000     0.761530000000     0.0541713  
H154     H      0.129910000000     0.182350000000     0.730660000000     0.0300593  
H155     H      0.071930000000     0.198250000000     0.656480000000     0.0289649  
H156     H      0.041180000000     0.230600000000     0.686360000000     0.0539535  
H157     H      0.806910000000     0.344960000000     0.930360000000     0.0292656  
H158     H      0.775760000000     0.313600000000     0.961010000000     0.0542131  
H159     H      0.856370000000     0.271610000000     0.993620000000     0.0543124  
H160     H      0.886820000000     0.303630000000     0.962990000000     0.0299062  
H161     H      0.760630000000     0.262760000000     0.964860000000     0.0386375  
H162     H      0.729680000000     0.230980000000     0.995640000000     0.0385468  
H163     H      0.792660000000     0.241630000000     0.068160000000     0.0386869  
H164     H      0.823650000000     0.273280000000     0.037330000000     0.0387355  
H165     H      0.696820000000     0.232050000000     0.038600000000     0.0542185  
H166     H      0.666340000000     0.200510000000     0.069690000000     0.0293832  
H167     H      0.746260000000     0.160770000000     0.104280000000     0.0292212  
H168     H      0.777450000000     0.191490000000     0.073050000000     0.0541845  
H169     H      0.829220000000     0.455070000000     0.878360000000     0.0292632  
H170     H      0.796800000000     0.485710000000     0.848270000000     0.0543245  
H171     H      0.823870000000     0.437770000000     0.770380000000     0.054177   
H172     H      0.855440000000     0.407120000000     0.801290000000     0.0285834  
H173     H      0.800280000000     0.523170000000     0.811210000000     0.0384963  
H174     H      0.769050000000     0.554590000000     0.780460000000     0.0385414  
H175     H      0.741730000000     0.480670000000     0.727990000000     0.0384274  
H176     H      0.771840000000     0.449040000000     0.759630000000     0.038492   
H177     H      0.767410000000     0.574380000000     0.731050000000     0.0542337  
H178     H      0.737120000000     0.605670000000     0.699610000000     0.0293538  
H179     H      0.667310000000     0.541640000000     0.696240000000     0.0286432  
H180     H      0.696630000000     0.510010000000     0.728290000000     0.0540874  
H181     H      0.085140000000     0.550740000000     0.126160000000     0.029892   
H182     H      0.053170000000     0.519640000000     0.096070000000     0.0542987  
H183     H      0.070300000000     0.574550000000     0.020350000000     0.0540497  
H184     H      0.101740000000     0.605420000000     0.051250000000     0.0288949  
H185     H      0.057860000000     0.485140000000     0.055310000000     0.0386835  
H186     H      0.027280000000     0.453420000000     0.024150000000     0.0386051  
H187     H      0.987070000000     0.528320000000     0.982230000000     0.038468   
H188     H      0.017730000000     0.560040000000     0.013350000000     0.0385973  
H189     H      0.975420000000     0.438180000000     0.016340000000     0.0539202  
H190     H      0.945680000000     0.406600000000     0.984610000000     0.0291016  
H191     H      0.961570000000     0.462540000000     0.910540000000     0.0293381  
H192     H      0.991950000000     0.494330000000     0.941430000000     0.0541314  
In1      In     0.900630000000     0.379380000000     0.892720000000     2.40155    
In2      In     0.151760000000     0.630210000000     0.141300000000     2.4025     
In3      In     0.401840000000     0.880060000000     0.891130000000     2.40331    
In4      In     0.652600000000     0.127510000000     0.142980000000     2.40553    
In5      In     0.402140000000     0.379140000000     0.390070000000     2.41077    
In6      In     0.650560000000     0.628460000000     0.641650000000     2.40618    
In7      In     0.903110000000     0.878620000000     0.394160000000     2.405      
In8      In     0.152420000000     0.131120000000     0.641990000000     2.40977    
N1       N      0.956210000000     0.927430000000     0.448750000000    -0.196725   
N2       N      0.101580000000     0.074170000000     0.594080000000    -0.196036   
N3       N      0.848040000000     0.825990000000     0.442780000000    -0.196009   
N4       N      0.702090000000     0.680240000000     0.588640000000    -0.195641   
N5       N      0.352240000000     0.325280000000     0.442300000000    -0.195026   
N6       N      0.203300000000     0.186610000000     0.592510000000    -0.195355   
N7       N      0.451260000000     0.436380000000     0.439090000000    -0.19529    
N8       N      0.598340000000     0.578110000000     0.587830000000    -0.196002   
N9       N      0.704920000000     0.075590000000     0.195210000000    -0.196679   
N10      N      0.851000000000     0.930260000000     0.341610000000    -0.195986   
N11      N      0.601820000000     0.177530000000     0.198480000000    -0.195742   
N12      N      0.452440000000     0.321340000000     0.342700000000    -0.196141   
N13      N      0.351200000000     0.929740000000     0.835350000000    -0.195389   
N14      N      0.203680000000     0.074590000000     0.689850000000    -0.195288   
N15      N      0.454520000000     0.828140000000     0.839400000000    -0.195272   
N16      N      0.600040000000     0.681630000000     0.694000000000    -0.195501   
N17      N      0.451890000000     0.934720000000     0.942410000000    -0.196065   
N18      N      0.598480000000     0.079980000000     0.088220000000    -0.19615    
N19      N      0.100700000000     0.681390000000     0.195460000000    -0.195954   
N20      N      0.956950000000     0.828410000000     0.341880000000    -0.19506    
N21      N      0.350440000000     0.827760000000     0.943930000000    -0.196426   
N22      N      0.203070000000     0.679360000000     0.085640000000    -0.195477   
N23      N      0.353300000000     0.435300000000     0.339280000000    -0.195852   
N24      N      0.208270000000     0.581460000000     0.192490000000    -0.196468   
N25      N      0.954780000000     0.330100000000     0.839510000000    -0.196529   
N26      N      0.103010000000     0.187940000000     0.691460000000    -0.195461   
N27      N      0.849050000000     0.326530000000     0.944500000000    -0.194918   
N28      N      0.704120000000     0.178480000000     0.089240000000    -0.195346   
N29      N      0.844670000000     0.428990000000     0.841960000000    -0.196105   
N30      N      0.700120000000     0.575870000000     0.695660000000    -0.196138   
N31      N      0.095780000000     0.580210000000     0.090840000000    -0.195515   
N32      N      0.951500000000     0.432330000000     0.945360000000    -0.195896   
O1       O      0.855190000000     0.363590000000     0.910510000000    -0.501021   
O2       O      0.894920000000     0.342850000000     0.926480000000    -0.492029   
O3       O      0.866410000000     0.415960000000     0.886660000000    -0.498241   
O4       O      0.929820000000     0.419580000000     0.900570000000    -0.498765   
O5       O      0.910790000000     0.338510000000     0.865750000000    -0.502118   
O6       O      0.922200000000     0.391630000000     0.937190000000    -0.500566   
O7       O      0.878690000000     0.391530000000     0.848530000000    -0.506363   
O8       O      0.944520000000     0.371160000000     0.867110000000    -0.503975   
O9       O      0.158800000000     0.668890000000     0.110600000000    -0.495237   
O10      O      0.195330000000     0.639350000000     0.115610000000    -0.503803   
O11      O      0.108940000000     0.639640000000     0.168240000000    -0.502473   
O12      O      0.119400000000     0.592120000000     0.134920000000    -0.494241   
O13      O      0.180310000000     0.622730000000     0.182960000000    -0.505978   
O14      O      0.127750000000     0.619250000000     0.097730000000    -0.503138   
O15      O      0.143850000000     0.671170000000     0.168620000000    -0.497412   
O16      O      0.179930000000     0.589630000000     0.150250000000    -0.49978    
O17      O      0.443940000000     0.907140000000     0.900350000000    -0.499456   
O18      O      0.409090000000     0.907540000000     0.932810000000    -0.505684   
O19      O      0.442620000000     0.850570000000     0.883730000000    -0.492166   
O20      O      0.394070000000     0.838690000000     0.918090000000    -0.505498   
O21      O      0.390530000000     0.922980000000     0.868400000000    -0.504569   
O22      O      0.358820000000     0.869820000000     0.917330000000    -0.500046   
O23      O      0.413390000000     0.858050000000     0.847120000000    -0.501314   
O24      O      0.363220000000     0.886400000000     0.858180000000    -0.492861   
O25      O      0.687010000000     0.120280000000     0.180150000000    -0.50283    
O26      O      0.670230000000     0.083190000000     0.157680000000    -0.507125   
O27      O      0.637040000000     0.171330000000     0.161140000000    -0.500045   
O28      O      0.658210000000     0.162310000000     0.107340000000    -0.49689    
O29      O      0.644480000000     0.099860000000     0.101540000000    -0.501334   
O30      O      0.698010000000     0.142940000000     0.124890000000    -0.502679   
O31      O      0.618400000000     0.133400000000     0.180540000000    -0.497928   
O32      O      0.606930000000     0.108520000000     0.129500000000    -0.500939   
O33      O      0.361190000000     0.350210000000     0.398690000000    -0.498251   
O34      O      0.394340000000     0.353370000000     0.432670000000    -0.498694   
O35      O      0.409760000000     0.349310000000     0.350150000000    -0.503845   
O36      O      0.396830000000     0.409920000000     0.350620000000    -0.503079   
O37      O      0.408490000000     0.409010000000     0.430040000000    -0.499326   
O38      O      0.359170000000     0.404490000000     0.379280000000    -0.500383   
O39      O      0.443690000000     0.350520000000     0.383430000000    -0.50257    
O40      O      0.443800000000     0.407170000000     0.398120000000    -0.498925   
O41      O      0.607860000000     0.602390000000     0.631680000000    -0.497274   
O42      O      0.641710000000     0.604060000000     0.598330000000    -0.504482   
O43      O      0.640860000000     0.651450000000     0.685590000000    -0.504529   
O44      O      0.657930000000     0.586310000000     0.667360000000    -0.506701   
O45      O      0.690910000000     0.636480000000     0.611050000000    -0.494295   
O46      O      0.692210000000     0.618440000000     0.669800000000    -0.499534   
O47      O      0.610470000000     0.658460000000     0.649740000000    -0.494919   
O48      O      0.661440000000     0.671830000000     0.619630000000    -0.504427   
O49      O      0.945400000000     0.905540000000     0.403860000000    -0.504101   
O50      O      0.913750000000     0.899960000000     0.438780000000    -0.506094   
O51      O      0.865970000000     0.885600000000     0.359650000000    -0.498211   
O52      O      0.920650000000     0.863780000000     0.348940000000    -0.500013   
O53      O      0.860970000000     0.870270000000     0.422420000000    -0.499151   
O54      O      0.939640000000     0.844330000000     0.387440000000    -0.493257   
O55      O      0.888570000000     0.922830000000     0.376410000000    -0.506658   
O56      O      0.889980000000     0.834690000000     0.413630000000    -0.500366   
O57      O      0.193740000000     0.160170000000     0.635090000000    -0.500112   
O58      O      0.160990000000     0.158400000000     0.600640000000    -0.500046   
O59      O      0.160920000000     0.102360000000     0.682350000000    -0.498165   
O60      O      0.143180000000     0.156720000000     0.684400000000    -0.499415   
O61      O      0.143990000000     0.102370000000     0.601620000000    -0.50201    
O62      O      0.113130000000     0.162820000000     0.648170000000    -0.501828   
O63      O      0.194490000000     0.103100000000     0.648640000000    -0.499277   
O64      O      0.110430000000     0.102830000000     0.635270000000    -0.502825   


