data_structure

_audit_creation_method RASPA-1.0
_audit_creation_date 2023-6-5
_audit_author_name 'Poobodin Mano'

_cell_length_a    56.085
_cell_length_b    55.4269
_cell_length_c    31.0354
_cell_angle_alpha 89.7763
_cell_angle_beta  90.2237
_cell_angle_gamma 89.9997
_cell_volume      96475.7

_symmetry_cell_setting          triclinic
_symmetry_space_group_name_Hall 'P 1'
_symmetry_space_group_name_H-M  'P 1'
_symmetry_Int_Tables_number     1

_symmetry_equiv_pos_as_xyz 'x,y,z'

loop_
_atom_site_label
_atom_site_type_symbol
_atom_site_fract_x
_atom_site_fract_y
_atom_site_fract_z
_atom_site_charge
C1       C      0.330820000000     0.378640000000     0.978450000000     0.409849   
C2       C      0.323210000000     0.306510000000     0.916170000000     0.416848   
C3       C      0.388690000000     0.325690000000     0.986880000000     0.419346   
C4       C      0.317560000000     0.312930000000     0.054550000000     0.411229   
C5       C      0.310730000000     0.632280000000     0.960040000000     0.414173   
C6       C      0.300090000000     0.699160000000     0.048520000000     0.417778   
C7       C      0.364360000000     0.688310000000     0.983200000000     0.41282    
C8       C      0.293800000000     0.698220000000     0.903740000000     0.416696   
C9       C      0.640520000000     0.325880000000     0.008520000000     0.417253   
C10      C      0.710520000000     0.319070000000     0.927530000000     0.417118   
C11      C      0.692130000000     0.383980000000     0.985310000000     0.415451   
C12      C      0.706330000000     0.314640000000     0.070350000000     0.415589   
C13      C      0.674860000000     0.638030000000     0.981330000000     0.410985   
C14      C      0.680190000000     0.709370000000     0.903150000000     0.414355   
C15      C      0.616790000000     0.688100000000     0.975880000000     0.415776   
C16      C      0.688370000000     0.707610000000     0.040940000000     0.417372   
C17      C      0.828380000000     0.137650000000     0.494880000000     0.413706   
C18      C      0.824050000000     0.209200000000     0.573040000000     0.411926   
C19      C      0.886370000000     0.191000000000     0.508820000000     0.410479   
C20      C      0.815990000000     0.201760000000     0.430230000000     0.412833   
C21      C      0.865990000000     0.825400000000     0.467830000000     0.416515   
C22      C      0.794660000000     0.816120000000     0.544350000000     0.412545   
C23      C      0.815820000000     0.882550000000     0.480700000000     0.413401   
C24      C      0.799100000000     0.811890000000     0.405780000000     0.410268   
C25      C      0.117920000000     0.826480000000     0.469610000000     0.415851   
C26      C      0.188090000000     0.810260000000     0.404630000000     0.414315   
C27      C      0.171350000000     0.880250000000     0.472000000000     0.413981   
C28      C      0.186620000000     0.810240000000     0.540500000000     0.414713   
C29      C      0.138390000000     0.192470000000     0.495600000000     0.415569   
C30      C      0.210860000000     0.203690000000     0.551590000000     0.408955   
C31      C      0.184130000000     0.135450000000     0.479580000000     0.415364   
C32      C      0.209080000000     0.204690000000     0.418380000000     0.418298   
C33      C      0.175810000000     0.072990000000     0.439260000000    -0.103526   
C34      C      0.182410000000     0.916290000000     0.508210000000     0.0757444  
C35      C      0.166570000000     0.918190000000     0.437320000000     0.0763322  
C36      C      0.184120000000     0.941420000000     0.509590000000    -0.093929   
C37      C      0.197370000000     0.993960000000     0.494670000000    -0.0349896  
C38      C      0.198450000000     0.019170000000     0.495350000000    -0.0338734  
C39      C      0.177990000000     0.982100000000     0.475140000000    -0.00605347 
C40      C      0.168120000000     0.943320000000     0.437530000000    -0.094236   
C41      C      0.180240000000     0.033050000000     0.476350000000    -0.00826773 
C42      C      0.188210000000     0.072320000000     0.513320000000    -0.0963235  
C43      C      0.160820000000     0.021210000000     0.457050000000    -0.0340086  
C44      C      0.188870000000     0.097470000000     0.512930000000     0.0746718  
C45      C      0.176690000000     0.098310000000     0.439350000000     0.101213   
C46      C      0.159670000000     0.996050000000     0.456530000000    -0.0350327  
C47      C      0.176810000000     0.955300000000     0.474060000000     0.0509013  
C48      C      0.181500000000     0.059810000000     0.476340000000     0.0554923  
C49      C      0.927240000000     0.801210000000     0.482930000000    -0.103442   
C50      C      0.082530000000     0.813830000000     0.433810000000     0.0756947  
C51      C      0.080190000000     0.832770000000     0.502050000000     0.0764558  
C52      C      0.057700000000     0.811930000000     0.431910000000    -0.0942822  
C53      C      0.004890000000     0.824750000000     0.426100000000    -0.0350596  
C54      C      0.979970000000     0.824440000000     0.425180000000    -0.0340065  
C55      C      0.017350000000     0.819250000000     0.464290000000    -0.00631358 
C56      C      0.055370000000     0.831090000000     0.501290000000    -0.094586   
C57      C      0.966960000000     0.818500000000     0.462370000000    -0.00828786 
C58      C      0.928240000000     0.837930000000     0.441790000000    -0.0965012  
C59      C      0.979440000000     0.812590000000     0.500340000000    -0.0339541  
C60      C      0.903450000000     0.839000000000     0.443690000000     0.074567   
C61      C      0.902230000000     0.802520000000     0.484350000000     0.101146   
C62      C      0.004330000000     0.812990000000     0.501300000000    -0.0349741  
C63      C      0.043800000000     0.820650000000     0.465880000000     0.0510677  
C64      C      0.940460000000     0.819120000000     0.462070000000     0.0552954  
C65      C      0.802670000000     0.076430000000     0.509990000000    -0.102764   
C66      C      0.808210000000     0.920340000000     0.447170000000     0.0762748  
C67      C      0.821320000000     0.918940000000     0.519850000000     0.0753881  
C68      C      0.807960000000     0.945510000000     0.448030000000    -0.0940623  
C69      C      0.823340000000     0.997700000000     0.449900000000    -0.0349879  
C70      C      0.824400000000     0.022870000000     0.450640000000    -0.0338996  
C71      C      0.815650000000     0.984640000000     0.486240000000    -0.00601586 
C72      C      0.821440000000     0.944130000000     0.521750000000    -0.0938215  
C73      C      0.817980000000     0.035680000000     0.487850000000    -0.00801483 
C74      C      0.838840000000     0.074310000000     0.469170000000    -0.0964135  
C75      C      0.810200000000     0.022650000000     0.524160000000    -0.0338442  
C76      C      0.840640000000     0.099340000000     0.471060000000     0.0754509  
C77      C      0.804830000000     0.101690000000     0.511720000000     0.100921   
C78      C      0.809000000000     0.997460000000     0.523330000000    -0.0349213  
C79      C      0.814870000000     0.957790000000     0.485450000000     0.0507142  
C80      C      0.819830000000     0.062480000000     0.489000000000     0.0550778  
C81      C      0.078150000000     0.201810000000     0.541730000000    -0.103069   
C82      C      0.921560000000     0.213550000000     0.494850000000     0.0755481  
C83      C      0.924210000000     0.175100000000     0.528230000000     0.0758322  
C84      C      0.946380000000     0.215750000000     0.495310000000    -0.0937175  
C85      C      0.998850000000     0.209090000000     0.475880000000    -0.0348849  
C86      C      0.023740000000     0.209600000000     0.474210000000    -0.033826   
C87      C      0.987050000000     0.198470000000     0.511100000000    -0.00590577 
C88      C      0.949060000000     0.176580000000     0.528820000000    -0.0939099  
C89      C      0.037510000000     0.199320000000     0.507510000000    -0.00793595 
C90      C      0.075440000000     0.195030000000     0.465560000000    -0.0961201  
C91      C      0.025710000000     0.188960000000     0.542960000000    -0.0338902  
C92      C      0.100230000000     0.193750000000     0.463770000000     0.0751882  
C93      C      0.103130000000     0.200270000000     0.539350000000     0.101282   
C94      C      0.000830000000     0.188660000000     0.544830000000    -0.0349608  
C95      C      0.960520000000     0.197020000000     0.512040000000     0.0506079  
C96      C      0.064030000000     0.198830000000     0.504870000000     0.055007   
C97      C      0.701570000000     0.756560000000     0.827280000000    -0.103345   
C98      C      0.795180000000     0.798720000000     0.614380000000     0.0757225  
C99      C      0.758390000000     0.804370000000     0.577780000000     0.0748442  
C100     C      0.783420000000     0.788280000000     0.649370000000    -0.0940833  
C101     C      0.754990000000     0.753510000000     0.705090000000    -0.0351103  
C102     C      0.743210000000     0.742900000000     0.739930000000    -0.0339211  
C103     C      0.745850000000     0.774430000000     0.685320000000    -0.00619778 
C104     C      0.746040000000     0.794140000000     0.612340000000    -0.0940386  
C105     C      0.722080000000     0.753060000000     0.755960000000    -0.00830523 
C106     C      0.707170000000     0.717190000000     0.797070000000    -0.0964337  
C107     C      0.712860000000     0.773910000000     0.736080000000    -0.0340057  
C108     C      0.696590000000     0.707110000000     0.833490000000     0.0744616  
C109     C      0.691010000000     0.746080000000     0.863840000000     0.100726   
C110     C      0.724570000000     0.784440000000     0.701030000000    -0.035151   
C111     C      0.758570000000     0.785800000000     0.648590000000     0.050748   
C112     C      0.710000000000     0.742120000000     0.793820000000     0.0551662  
C113     C      0.705310000000     0.750240000000     0.127790000000    -0.103238   
C114     C      0.798450000000     0.779790000000     0.355130000000     0.0748988  
C115     C      0.770780000000     0.811980000000     0.348840000000     0.0762588  
C116     C      0.788980000000     0.768920000000     0.318260000000    -0.0938973  
C117     C      0.755740000000     0.743940000000     0.254160000000    -0.0350457  
C118     C      0.744910000000     0.733880000000     0.217730000000    -0.0338717  
C119     C      0.759790000000     0.768940000000     0.256530000000    -0.00613543 
C120     C      0.760930000000     0.801660000000     0.311930000000    -0.0942147  
C121     C      0.737910000000     0.748620000000     0.182950000000    -0.00822576 
C122     C      0.732110000000     0.716520000000     0.127110000000    -0.09626    
C123     C      0.742550000000     0.773510000000     0.184890000000    -0.0340429  
C124     C      0.719580000000     0.707090000000     0.092100000000     0.0740332  
C125     C      0.692880000000     0.740500000000     0.092590000000     0.101037   
C126     C      0.753360000000     0.783540000000     0.221230000000    -0.0350445  
C127     C      0.770070000000     0.779940000000     0.296040000000     0.0508676  
C128     C      0.725020000000     0.738300000000     0.145390000000     0.0553141  
C129     C      0.723230000000     0.293060000000     0.819940000000    -0.102928   
C130     C      0.811080000000     0.208820000000     0.645830000000     0.0755784  
C131     C      0.811940000000     0.245600000000     0.606590000000     0.0757512  
C132     C      0.801590000000     0.220600000000     0.681600000000    -0.0937757  
C133     C      0.791670000000     0.252410000000     0.759190000000    -0.0350724  
C134     C      0.779910000000     0.263410000000     0.793580000000    -0.0338015  
C135     C      0.785360000000     0.257980000000     0.716380000000    -0.00604441 
C136     C      0.802490000000     0.257960000000     0.641730000000    -0.0942662  
C137     C      0.761550000000     0.280180000000     0.785930000000    -0.00815412 
C138     C      0.759610000000     0.298510000000     0.859650000000    -0.0963311  
C139     C      0.755610000000     0.286110000000     0.743130000000    -0.0339714  
C140     C      0.746480000000     0.308080000000     0.893650000000     0.07446    
C141     C      0.710300000000     0.302730000000     0.854440000000     0.100312   
C142     C      0.767350000000     0.275140000000     0.708800000000    -0.0348474  
C143     C      0.796900000000     0.245430000000     0.679680000000     0.0508253  
C144     C      0.748020000000     0.290810000000     0.822310000000     0.055189   
C145     C      0.732410000000     0.304050000000     0.179060000000    -0.102944   
C146     C      0.817430000000     0.216820000000     0.358500000000     0.0755858  
C147     C      0.780410000000     0.214290000000     0.394890000000     0.0756984  
C148     C      0.806240000000     0.226950000000     0.322430000000    -0.0938426  
C149     C      0.776000000000     0.236990000000     0.242830000000    -0.0350651  
C150     C      0.765130000000     0.248590000000     0.207820000000    -0.0338703  
C151     C      0.769520000000     0.242760000000     0.285290000000    -0.00606842 
C152     C      0.768650000000     0.224360000000     0.359390000000    -0.0940915  
C153     C      0.747540000000     0.266260000000     0.214440000000    -0.0081659  
C154     C      0.730210000000     0.266920000000     0.139810000000    -0.0962508  
C155     C      0.740860000000     0.271800000000     0.256870000000    -0.0339075  
C156     C      0.720110000000     0.279390000000     0.105170000000     0.0742939  
C157     C      0.722210000000     0.316340000000     0.143850000000     0.100132   
C158     C      0.751710000000     0.260210000000     0.291860000000    -0.03496    
C159     C      0.781580000000     0.231040000000     0.322670000000     0.0507595  
C160     C      0.736520000000     0.279200000000     0.177300000000     0.054965   
C161     C      0.681770000000     0.446950000000     0.948730000000    -0.10335    
C162     C      0.665240000000     0.599090000000     0.008320000000     0.0754948  
C163     C      0.697340000000     0.603860000000     0.959510000000     0.075842   
C164     C      0.668830000000     0.574160000000     0.009380000000    -0.0940897  
C165     C      0.688700000000     0.523530000000     0.021900000000    -0.0350996  
C166     C      0.690640000000     0.498390000000     0.020820000000    -0.0338046  
C167     C      0.690170000000     0.537180000000     0.983730000000    -0.00627077 
C168     C      0.701340000000     0.578980000000     0.959620000000    -0.094184   
C169     C      0.693940000000     0.486340000000     0.981530000000    -0.00829279 
C170     C      0.707390000000     0.446390000000     0.010830000000    -0.0962423  
C171     C      0.695810000000     0.500020000000     0.943450000000    -0.0340698  
C172     C      0.706780000000     0.421250000000     0.010420000000     0.0749054  
C173     C      0.681310000000     0.421600000000     0.948880000000     0.101768   
C174     C      0.694010000000     0.525160000000     0.944560000000    -0.0350241  
C175     C      0.686900000000     0.563780000000     0.984530000000     0.050772   
C176     C      0.694540000000     0.459550000000     0.980180000000     0.0552224  
C177     C      0.247240000000     0.718920000000     0.826630000000    -0.103115   
C178     C      0.221210000000     0.800820000000     0.581730000000     0.0765384  
C179     C      0.183310000000     0.786710000000     0.604290000000     0.0762297  
C180     C      0.232090000000     0.789670000000     0.617140000000    -0.0944513  
C181     C      0.250630000000     0.751790000000     0.680640000000    -0.0350725  
C182     C      0.260990000000     0.740420000000     0.716370000000    -0.0338785  
C183     C      0.229430000000     0.765050000000     0.684950000000    -0.00626057 
C184     C      0.193580000000     0.775510000000     0.640210000000    -0.0944832  
C185     C      0.250450000000     0.742180000000     0.757310000000    -0.00806156 
C186     C      0.286130000000     0.729610000000     0.800900000000    -0.0959904  
C187     C      0.229320000000     0.755620000000     0.761580000000    -0.0338001  
C188     C      0.296130000000     0.718470000000     0.837020000000     0.0746434  
C189     C      0.257630000000     0.707850000000     0.862930000000     0.101169   
C190     C      0.218890000000     0.766840000000     0.725810000000    -0.0350247  
C191     C      0.218240000000     0.776890000000     0.646960000000     0.0512976  
C192     C      0.261430000000     0.730100000000     0.795430000000     0.0551174  
C193     C      0.272160000000     0.706230000000     0.156060000000    -0.103214   
C194     C      0.210850000000     0.813150000000     0.340450000000     0.0759066  
C195     C      0.199400000000     0.774770000000     0.367260000000     0.0764949  
C196     C      0.222410000000     0.802400000000     0.305670000000    -0.0939495  
C197     C      0.256280000000     0.774700000000     0.248380000000    -0.0348439  
C198     C      0.267560000000     0.763690000000     0.213500000000    -0.0341447  
C199     C      0.234740000000     0.765430000000     0.264660000000    -0.00615424 
C200     C      0.210930000000     0.763410000000     0.333090000000    -0.0941734  
C201     C      0.257680000000     0.743040000000     0.194370000000    -0.00816658 
C202     C      0.278120000000     0.744930000000     0.122920000000    -0.096474   
C203     C      0.236230000000     0.733700000000     0.210650000000    -0.0340933  
C204     C      0.288400000000     0.733520000000     0.087630000000     0.0747409  
C205     C      0.282780000000     0.695040000000     0.120430000000     0.100429   
C206     C      0.224850000000     0.744810000000     0.245250000000    -0.0346939  
C207     C      0.222590000000     0.777220000000     0.301610000000     0.0509758  
C208     C      0.269590000000     0.731280000000     0.157370000000     0.0553761  
C209     C      0.425770000000     0.712330000000     0.970830000000    -0.103029   
C210     C      0.581020000000     0.694090000000     0.014930000000     0.0768973  
C211     C      0.579290000000     0.685760000000     0.940110000000     0.0755812  
C212     C      0.556190000000     0.695250000000     0.016870000000    -0.0941482  
C213     C      0.503830000000     0.682390000000     0.017170000000    -0.0349468  
C214     C      0.478950000000     0.682860000000     0.018890000000    -0.0338427  
C215     C      0.515980000000     0.692040000000     0.981480000000    -0.0060185  
C216     C      0.554390000000     0.686650000000     0.940920000000    -0.093912   
C217     C      0.465550000000     0.692870000000     0.984870000000    -0.00810415 
C218     C      0.426750000000     0.672730000000     0.002310000000    -0.0964494  
C219     C      0.477690000000     0.702600000000     0.949230000000    -0.0338701  
C220     C      0.401920000000     0.672400000000     0.002000000000     0.0754912  
C221     C      0.400710000000     0.711640000000     0.970690000000     0.101192   
C222     C      0.502600000000     0.702230000000     0.947590000000    -0.03497    
C223     C      0.542500000000     0.691380000000     0.979670000000     0.0508656  
C224     C      0.439020000000     0.692680000000     0.986120000000     0.0551352  
C225     C      0.314420000000     0.264070000000     0.824980000000    -0.103494   
C226     C      0.216450000000     0.235220000000     0.602150000000     0.0762189  
C227     C      0.242290000000     0.201360000000     0.603040000000     0.0757543  
C228     C      0.228510000000     0.245230000000     0.637200000000    -0.0939675  
C229     C      0.264580000000     0.268420000000     0.696460000000    -0.0350178  
C230     C      0.275600000000     0.278270000000     0.732770000000    -0.0339365  
C231     C      0.260750000000     0.243400000000     0.693460000000    -0.00595767 
C232     C      0.254850000000     0.210920000000     0.638010000000    -0.0936569  
C233     C      0.283210000000     0.263340000000     0.766830000000    -0.00838114 
C234     C      0.283710000000     0.294210000000     0.825140000000    -0.0972174  
C235     C      0.279900000000     0.238300000000     0.763520000000    -0.0338255  
C236     C      0.293850000000     0.304170000000     0.861980000000     0.0767871  
C237     C      0.324540000000     0.274480000000     0.862070000000     0.101682   
C238     C      0.268720000000     0.228430000000     0.727290000000    -0.0348432  
C239     C      0.247970000000     0.233080000000     0.655670000000     0.0509009  
C240     C      0.293990000000     0.274020000000     0.806110000000     0.0559174  
C241     C      0.250930000000     0.216320000000     0.328140000000    -0.10349    
C242     C      0.312300000000     0.310940000000     0.130410000000     0.07583    
C243     C      0.289000000000     0.286150000000     0.084520000000     0.07536    
C244     C      0.301360000000     0.300950000000     0.166710000000    -0.0941021  
C245     C      0.265770000000     0.285480000000     0.235540000000    -0.0351177  
C246     C      0.255440000000     0.274560000000     0.271620000000    -0.0338987  
C247     C      0.272780000000     0.271520000000     0.200030000000    -0.00621524 
C248     C      0.277770000000     0.275720000000     0.120080000000    -0.0942532  
C249     C      0.252040000000     0.249450000000     0.273080000000    -0.00828156 
C250     C      0.221570000000     0.247720000000     0.331810000000    -0.0964549  
C251     C      0.258990000000     0.235520000000     0.237530000000    -0.0339117  
C252     C      0.211500000000     0.236200000000     0.367360000000     0.0746602  
C253     C      0.240620000000     0.205000000000     0.364110000000     0.101241   
C254     C      0.269210000000     0.246430000000     0.201410000000    -0.0349162  
C255     C      0.284000000000     0.282980000000     0.161820000000     0.0509277  
C256     C      0.241380000000     0.237720000000     0.311570000000     0.0554385  
C257     C      0.579190000000     0.302830000000     0.989990000000    -0.102565   
C258     C      0.427050000000     0.338900000000     0.965060000000     0.0761762  
C259     C      0.423430000000     0.307390000000     0.016490000000     0.0763915  
C260     C      0.451850000000     0.338030000000     0.968350000000    -0.0942672  
C261     C      0.502320000000     0.342800000000     0.001410000000    -0.0348734  
C262     C      0.527130000000     0.342450000000     0.005190000000    -0.0336987  
C263     C      0.489180000000     0.321190000000     0.001740000000    -0.00595921 
C264     C      0.448220000000     0.306100000000     0.020740000000    -0.0940365  
C265     C      0.539470000000     0.320490000000     0.009620000000    -0.00791605 
C266     C      0.578300000000     0.337890000000     0.035020000000    -0.0963115  
C267     C      0.526320000000     0.298880000000     0.010560000000    -0.0339245  
C268     C      0.603120000000     0.338570000000     0.034230000000     0.0752717  
C269     C      0.604240000000     0.303680000000     0.989840000000     0.10056    
C270     C      0.501470000000     0.299230000000     0.006630000000    -0.0348586  
C271     C      0.462780000000     0.321690000000     0.996790000000     0.0509149  
C272     C      0.565980000000     0.320240000000     0.011960000000     0.0552441  
C273     C      0.289340000000     0.569140000000     0.967970000000    -0.10311    
C274     C      0.321770000000     0.412940000000     0.935350000000     0.075947   
C275     C      0.326840000000     0.417180000000     0.010820000000     0.0749887  
C276     C      0.317810000000     0.437690000000     0.930940000000    -0.0940703  
C277     C      0.324980000000     0.491770000000     0.927490000000    -0.0349896  
C278     C      0.322690000000     0.516810000000     0.924200000000    -0.0339431  
C279     C      0.315450000000     0.479220000000     0.962950000000    -0.0059639  
C280     C      0.323150000000     0.442040000000     0.007550000000    -0.0936808  
C281     C      0.310960000000     0.529980000000     0.956430000000    -0.00799736 
C282     C      0.329060000000     0.570260000000     0.939520000000    -0.0963824  
C283     C      0.301150000000     0.517400000000     0.991590000000    -0.0338035  
C284     C      0.328230000000     0.595370000000     0.940180000000     0.0756581  
C285     C      0.288880000000     0.594480000000     0.968580000000     0.101722   
C286     C      0.303290000000     0.492340000000     0.994730000000    -0.0350394  
C287     C      0.318670000000     0.452660000000     0.967220000000     0.0505229  
C288     C      0.309690000000     0.556790000000     0.954300000000     0.0553201  
H1       H      0.159660000000     0.909630000000     0.408500000000     0.0296054  
H2       H      0.194070000000     0.106180000000     0.542760000000     0.0318212  
H3       H      0.144260000000     0.987540000000     0.441990000000     0.0387937  
H4       H      0.213770000000     0.027790000000     0.510050000000     0.0390552  
H5       H      0.192590000000     0.062760000000     0.542820000000     0.0552869  
H6       H      0.211930000000     0.983790000000     0.508790000000     0.0390031  
H7       H      0.170900000000     0.063400000000     0.410090000000     0.0584889  
H8       H      0.162680000000     0.953260000000     0.409030000000     0.0543313  
H9       H      0.190700000000     0.949900000000     0.538680000000     0.0542833  
H10      H      0.146320000000     0.031430000000     0.442780000000     0.0388079  
H11      H      0.188030000000     0.906190000000     0.536470000000     0.0293659  
H12      H      0.088450000000     0.841150000000     0.529890000000     0.0294315  
H13      H      0.895020000000     0.854320000000     0.427990000000     0.0301073  
H14      H      0.013410000000     0.808400000000     0.531100000000     0.0390626  
H15      H      0.970870000000     0.828860000000     0.395330000000     0.0385183  
H16      H      0.937800000000     0.852250000000     0.425440000000     0.0549279  
H17      H      0.014390000000     0.829840000000     0.397140000000     0.0388524  
H18      H      0.936520000000     0.786130000000     0.497840000000     0.058422   
H19      H      0.045300000000     0.838350000000     0.527980000000     0.0545975  
H20      H      0.049480000000     0.803490000000     0.404160000000     0.0545075  
H21      H      0.969950000000     0.808160000000     0.529650000000     0.039004   
H22      H      0.092700000000     0.806880000000     0.406930000000     0.0289986  
H23      H      0.826760000000     0.909010000000     0.548420000000     0.0283246  
H24      H      0.856020000000     0.107380000000     0.455530000000     0.0311362  
H25      H      0.802730000000     0.988040000000     0.551750000000     0.0386775  
H26      H      0.830200000000     0.032290000000     0.421900000000     0.038286   
H27      H      0.852690000000     0.064280000000     0.452900000000     0.0549346  
H28      H      0.828910000000     0.988480000000     0.420950000000     0.0387774  
H29      H      0.787390000000     0.067570000000     0.524480000000     0.0581673  
H30      H      0.827180000000     0.952790000000     0.551230000000     0.0541478  
H31      H      0.802270000000     0.955240000000     0.419460000000     0.0543481  
H32      H      0.805370000000     0.031890000000     0.553550000000     0.038868   
H33      H      0.802900000000     0.911570000000     0.417470000000     0.0306331  
H34      H      0.916080000000     0.158860000000     0.541110000000     0.0296521  
H35      H      0.107990000000     0.190320000000     0.432420000000     0.0309582  
H36      H      0.992410000000     0.180660000000     0.572790000000     0.0385151  
H37      H      0.032170000000     0.218050000000     0.446690000000     0.0384877  
H38      H      0.065300000000     0.192390000000     0.436190000000     0.0549544  
H39      H      0.988880000000     0.216590000000     0.449050000000     0.0388546  
H40      H      0.069650000000     0.205650000000     0.572310000000     0.0580889  
H41      H      0.959160000000     0.161470000000     0.541480000000     0.0541835  
H42      H      0.954380000000     0.232080000000     0.482710000000     0.0542245  
H43      H      0.035660000000     0.180610000000     0.569000000000     0.0385696  
H44      H      0.911260000000     0.228320000000     0.481310000000     0.0298253  
H45      H      0.748110000000     0.810400000000     0.550110000000     0.028585   
H46      H      0.695120000000     0.687600000000     0.834340000000     0.031585   
H47      H      0.717170000000     0.800640000000     0.686670000000     0.0390263  
H48      H      0.750870000000     0.726960000000     0.754790000000     0.0388392  
H49      H      0.713110000000     0.705400000000     0.771490000000     0.05517    
H50      H      0.771210000000     0.745220000000     0.693430000000     0.0391613  
H51      H      0.703630000000     0.776000000000     0.825080000000     0.0584879  
H52      H      0.726830000000     0.792390000000     0.610300000000     0.0543588  
H53      H      0.793760000000     0.782370000000     0.677020000000     0.0547737  
H54      H      0.696500000000     0.782030000000     0.747480000000     0.0387721  
H55      H      0.814430000000     0.800290000000     0.616190000000     0.0307563  
H56      H      0.763190000000     0.828820000000     0.360030000000     0.0311177  
H57      H      0.725900000000     0.690080000000     0.079300000000     0.0297328  
H58      H      0.756690000000     0.802790000000     0.221660000000     0.0390924  
H59      H      0.741380000000     0.714670000000     0.217360000000     0.038689   
H60      H      0.747450000000     0.706820000000     0.139540000000     0.054831   
H61      H      0.760290000000     0.732230000000     0.280970000000     0.0389395  
H62      H      0.699450000000     0.767090000000     0.142020000000     0.0583926  
H63      H      0.746050000000     0.810580000000     0.296210000000     0.0546621  
H64      H      0.796690000000     0.752210000000     0.306890000000     0.0542327  
H65      H      0.737800000000     0.785280000000     0.158270000000     0.0389447  
H66      H      0.813200000000     0.770860000000     0.371300000000     0.0288118  
H67      H      0.815790000000     0.255900000000     0.577660000000     0.0291355  
H68      H      0.756470000000     0.313700000000     0.921880000000     0.0298348  
H69      H      0.761880000000     0.279690000000     0.676270000000     0.0391366  
H70      H      0.784810000000     0.258340000000     0.826170000000     0.0387124  
H71      H      0.778820000000     0.297340000000     0.862590000000     0.0549338  
H72      H      0.805650000000     0.239470000000     0.766150000000     0.0387499  
H73      H      0.713950000000     0.286900000000     0.791250000000     0.0585615  
H74      H      0.799530000000     0.277210000000     0.639060000000     0.0543819  
H75      H      0.797330000000     0.210150000000     0.710090000000     0.0547417  
H76      H      0.741760000000     0.299180000000     0.736130000000     0.0388354  
H77      H      0.814090000000     0.189540000000     0.648320000000     0.0304139  
H78      H      0.769800000000     0.209520000000     0.422790000000     0.0292072  
H79      H      0.715570000000     0.268820000000     0.076960000000     0.0303456  
H80      H      0.746450000000     0.265280000000     0.324120000000     0.0390387  
H81      H      0.770830000000     0.244030000000     0.175560000000     0.0386107  
H82      H      0.732820000000     0.247610000000     0.137270000000     0.0549044  
H83      H      0.789470000000     0.223450000000     0.236610000000     0.0387297  
H84      H      0.737550000000     0.313910000000     0.207800000000     0.0582211  
H85      H      0.749510000000     0.226820000000     0.360730000000     0.0543955  
H86      H      0.816990000000     0.232060000000     0.294950000000     0.0544639  
H87      H      0.727160000000     0.285110000000     0.263100000000     0.0386515  
H88      H      0.836580000000     0.214230000000     0.357280000000     0.0298995  
H89      H      0.708780000000     0.615020000000     0.939620000000     0.0302614  
H90      H      0.716810000000     0.412020000000     0.035480000000     0.0323163  
H91      H      0.695030000000     0.535140000000     0.914550000000     0.0390494  
H92      H      0.688950000000     0.488350000000     0.050670000000     0.0390265  
H93      H      0.717860000000     0.455480000000     0.035280000000     0.0554203  
H94      H      0.685990000000     0.532280000000     0.052640000000     0.0389883  
H95      H      0.671800000000     0.456970000000     0.924510000000     0.0585367  
H96      H      0.715690000000     0.571710000000     0.940350000000     0.0545203  
H97      H      0.657100000000     0.563050000000     0.028760000000     0.0544391  
H98      H      0.698580000000     0.491260000000     0.912740000000     0.0386796  
H99      H      0.650850000000     0.606390000000     0.027530000000     0.0289393  
H100     H      0.164170000000     0.785160000000     0.600100000000     0.0297014  
H101     H      0.315420000000     0.718960000000     0.839680000000     0.031988   
H102     H      0.202730000000     0.777230000000     0.730250000000     0.0393112  
H103     H      0.277060000000     0.729940000000     0.711760000000     0.0384894  
H104     H      0.297820000000     0.738220000000     0.777780000000     0.0550108  
H105     H      0.259000000000     0.749840000000     0.649450000000     0.0390462  
H106     H      0.228030000000     0.718530000000     0.822230000000     0.0582002  
H107     H      0.182280000000     0.765580000000     0.662250000000     0.054726   
H108     H      0.251200000000     0.791350000000     0.621430000000     0.0546343  
H109     H      0.220950000000     0.757750000000     0.792730000000     0.0388934  
H110     H      0.232490000000     0.810660000000     0.559450000000     0.0290631  
H111     H      0.190610000000     0.763450000000     0.390950000000     0.0289757  
H112     H      0.294410000000     0.745070000000     0.061550000000     0.0302243  
H113     H      0.208070000000     0.737420000000     0.256330000000     0.038938   
H114     H      0.284220000000     0.771120000000     0.201910000000     0.0388035  
H115     H      0.276380000000     0.764400000000     0.122700000000     0.0553413  
H116     H      0.264640000000     0.790300000000     0.262930000000     0.0386713  
H117     H      0.265960000000     0.695480000000     0.183130000000     0.0584827  
H118     H      0.210920000000     0.743890000000     0.331750000000     0.0542156  
H119     H      0.230830000000     0.813850000000     0.281830000000     0.0542884  
H120     H      0.228020000000     0.718010000000     0.196110000000     0.0395038  
H121     H      0.211070000000     0.832680000000     0.342370000000     0.0298139  
H122     H      0.587840000000     0.681920000000     0.909620000000     0.0281359  
H123     H      0.393470000000     0.656170000000     0.014260000000     0.0313093  
H124     H      0.511350000000     0.710080000000     0.919850000000     0.038856   
H125     H      0.470230000000     0.675440000000     0.047050000000     0.0383507  
H126     H      0.436240000000     0.657040000000     0.014240000000     0.0549891  
H127     H      0.513520000000     0.674140000000     0.043630000000     0.0388485  
H128     H      0.435050000000     0.728320000000     0.959480000000     0.0582408  
H129     H      0.544550000000     0.683240000000     0.911480000000     0.0542071  
H130     H      0.547840000000     0.699390000000     0.047360000000     0.0546583  
H131     H      0.467950000000     0.710190000000     0.922220000000     0.038967   
H132     H      0.590930000000     0.697170000000     0.044480000000     0.0308334  
H133     H      0.248130000000     0.184160000000     0.590320000000     0.0304125  
H134     H      0.285010000000     0.319900000000     0.875130000000     0.032214   
H135     H      0.265780000000     0.209130000000     0.726360000000     0.0391451  
H136     H      0.278260000000     0.297610000000     0.734140000000     0.0389211  
H137     H      0.267650000000     0.302220000000     0.811860000000     0.055618   
H138     H      0.259120000000     0.280440000000     0.670660000000     0.0387167  
H139     H      0.322570000000     0.248340000000     0.810380000000     0.0586173  
H140     H      0.269980000000     0.201050000000     0.650830000000     0.0543792  
H141     H      0.222280000000     0.262200000000     0.650150000000     0.054426   
H142     H      0.285360000000     0.226380000000     0.789490000000     0.0391227  
H143     H      0.201400000000     0.245130000000     0.588990000000     0.0302099  
H144     H      0.283750000000     0.279970000000     0.052750000000     0.0292782  
H145     H      0.196000000000     0.244740000000     0.381460000000     0.0310479  
H146     H      0.274630000000     0.235140000000     0.174770000000     0.0392161  
H147     H      0.250420000000     0.285760000000     0.298640000000     0.0385678  
H148     H      0.213530000000     0.264200000000     0.319780000000     0.0552954  
H149     H      0.268100000000     0.304880000000     0.235290000000     0.038912   
H150     H      0.266620000000     0.208600000000     0.313120000000     0.0586098  
H151     H      0.264210000000     0.262120000000     0.114840000000     0.0546146  
H152     H      0.306860000000     0.306930000000     0.198410000000     0.054595   
H153     H      0.256370000000     0.216160000000     0.237480000000     0.0392284  
H154     H      0.325840000000     0.324610000000     0.135500000000     0.0301976  
H155     H      0.412760000000     0.295250000000     0.035960000000     0.0289283  
H156     H      0.611620000000     0.353020000000     0.052090000000     0.0303892  
H157     H      0.491940000000     0.282240000000     0.006700000000     0.0390041  
H158     H      0.536670000000     0.359420000000     0.003820000000     0.0389753  
H159     H      0.568810000000     0.351370000000     0.053430000000     0.0549844  
H160     H      0.493440000000     0.360070000000     0.998390000000     0.0387995  
H161     H      0.569910000000     0.288900000000     0.972020000000     0.0583843  
H162     H      0.455850000000     0.293320000000     0.043390000000     0.054404   
H163     H      0.462380000000     0.350090000000     0.948520000000     0.054458   
H164     H      0.535220000000     0.281670000000     0.014420000000     0.0385617  
H165     H      0.419310000000     0.351950000000     0.942940000000     0.0286378  
H166     H      0.330460000000     0.409700000000     0.042510000000     0.0293021  
H167     H      0.344080000000     0.604810000000     0.929390000000     0.0309274  
H168     H      0.295420000000     0.483270000000     0.022170000000     0.0387803  
H169     H      0.330200000000     0.525840000000     0.896390000000     0.0382061  
H170     H      0.345240000000     0.561530000000     0.928770000000     0.054917   
H171     H      0.334690000000     0.482330000000     0.902620000000     0.0386853  
H172     H      0.273760000000     0.558940000000     0.977860000000     0.0583836  
H173     H      0.324330000000     0.452890000000     0.036420000000     0.054143   
H174     H      0.313990000000     0.444990000000     0.899240000000     0.054172   
H175     H      0.292230000000     0.526950000000     0.017290000000     0.03915    
H176     H      0.321090000000     0.402010000000     0.906460000000     0.0300932  
In1      In     0.340630000000     0.330890000000     0.984830000000     2.40401    
In2      In     0.316940000000     0.680150000000     0.973930000000     2.42122    
In3      In     0.687670000000     0.335690000000     0.998490000000     2.42015    
In4      In     0.665020000000     0.685690000000     0.974930000000     2.40748    
In5      In     0.838580000000     0.185320000000     0.501830000000     2.4124     
In6      In     0.818500000000     0.833880000000     0.475300000000     2.40593    
In7      In     0.165920000000     0.831750000000     0.471560000000     2.41269    
In8      In     0.185770000000     0.184260000000     0.485900000000     2.42448    
N1       N      0.183160000000     0.110630000000     0.476610000000    -0.19676    
N2       N      0.173530000000     0.904830000000     0.472470000000    -0.195806   
N3       N      0.890310000000     0.821880000000     0.465400000000    -0.196728   
N4       N      0.093620000000     0.824280000000     0.468520000000    -0.196277   
N5       N      0.824210000000     0.113140000000     0.492680000000    -0.196219   
N6       N      0.815010000000     0.907200000000     0.482690000000    -0.195598   
N7       N      0.114150000000     0.195700000000     0.500170000000    -0.197157   
N8       N      0.910630000000     0.193300000000     0.510890000000    -0.195477   
N9       N      0.688960000000     0.721130000000     0.867270000000    -0.196955   
N10      N      0.782760000000     0.806530000000     0.578800000000    -0.196034   
N11      N      0.699990000000     0.718630000000     0.074840000000    -0.1969     
N12      N      0.789450000000     0.801180000000     0.370100000000    -0.1953     
N13      N      0.722030000000     0.310090000000     0.891760000000    -0.196785   
N14      N      0.815880000000     0.221190000000     0.608490000000    -0.195825   
N15      N      0.716100000000     0.303880000000     0.106540000000    -0.196954   
N16      N      0.804630000000     0.210800000000     0.394550000000    -0.195786   
N17      N      0.693390000000     0.408720000000     0.980730000000    -0.196956   
N18      N      0.679240000000     0.613750000000     0.983270000000    -0.195066   
N19      N      0.282260000000     0.707920000000     0.868350000000    -0.197538   
N20      N      0.197030000000     0.799300000000     0.575410000000    -0.195622   
N21      N      0.290600000000     0.708810000000     0.085640000000    -0.197365   
N22      N      0.199400000000     0.799420000000     0.370870000000    -0.195823   
N23      N      0.388760000000     0.691250000000     0.985440000000    -0.196374   
N24      N      0.592440000000     0.689330000000     0.976890000000    -0.196194   
N25      N      0.314220000000     0.294800000000     0.880460000000    -0.196034   
N26      N      0.223230000000     0.213420000000     0.585410000000    -0.194667   
N27      N      0.220620000000     0.214950000000     0.383630000000    -0.197494   
N28      N      0.306250000000     0.303440000000     0.089730000000    -0.195675   
N29      N      0.616220000000     0.322220000000     0.010920000000    -0.197056   
N30      N      0.412980000000     0.323860000000     0.989260000000    -0.197286   
N31      N      0.308810000000     0.607600000000     0.955960000000    -0.196636   
N32      N      0.326380000000     0.402840000000     0.974930000000    -0.195386   
O1       O      0.312720000000     0.306610000000     0.016510000000    -0.503844   
O2       O      0.333940000000     0.328460000000     0.057440000000    -0.492011   
O3       O      0.312530000000     0.324080000000     0.933480000000    -0.493734   
O4       O      0.331810000000     0.364900000000     0.946210000000    -0.49337    
O5       O      0.374840000000     0.312360000000     0.008320000000    -0.503925   
O6       O      0.334650000000     0.368260000000     0.014090000000    -0.498596   
O7       O      0.342810000000     0.301220000000     0.934100000000    -0.500039   
O8       O      0.378260000000     0.341310000000     0.963910000000    -0.510898   
O9       O      0.283220000000     0.690520000000     0.936780000000    -0.506831   
O10      O      0.316230000000     0.696820000000     0.906410000000    -0.500236   
O11      O      0.303380000000     0.676920000000     0.042850000000    -0.499483   
O12      O      0.296280000000     0.644950000000     0.981230000000    -0.492316   
O13      O      0.350570000000     0.702600000000     0.963450000000    -0.493583   
O14      O      0.328230000000     0.644060000000     0.945360000000    -0.502731   
O15      O      0.305760000000     0.711920000000     0.016330000000    -0.508723   
O16      O      0.353900000000     0.670080000000     0.998840000000    -0.503159   
O17      O      0.701070000000     0.302950000000     0.036740000000    -0.507267   
O18      O      0.701990000000     0.336880000000     0.067280000000    -0.497846   
O19      O      0.688190000000     0.320570000000     0.930610000000    -0.497369   
O20      O      0.654310000000     0.313180000000     0.986080000000    -0.494452   
O21      O      0.704410000000     0.372470000000     0.012750000000    -0.494845   
O22      O      0.650850000000     0.343350000000     0.026790000000    -0.507318   
O23      O      0.721500000000     0.326150000000     0.960830000000    -0.506294   
O24      O      0.677830000000     0.370880000000     0.964460000000    -0.504447   
O25      O      0.695640000000     0.688260000000     0.024020000000    -0.504974   
O26      O      0.669410000000     0.715540000000     0.024280000000    -0.493295   
O27      O      0.677360000000     0.686770000000     0.904710000000    -0.494271   
O28      O      0.687150000000     0.652350000000     0.958730000000    -0.492099   
O29      O      0.629520000000     0.690510000000     0.009180000000    -0.497656   
O30      O      0.657830000000     0.647860000000     0.001200000000    -0.505705   
O31      O      0.675160000000     0.719830000000     0.937920000000    -0.503221   
O32      O      0.628400000000     0.684340000000     0.941750000000    -0.506436   
O33      O      0.805130000000     0.196550000000     0.464590000000    -0.506256   
O34      O      0.838250000000     0.198450000000     0.431870000000    -0.499107   
O35      O      0.827680000000     0.186720000000     0.572750000000    -0.497315   
O36      O      0.816530000000     0.151890000000     0.518120000000    -0.492486   
O37      O      0.873090000000     0.206430000000     0.490690000000    -0.496261   
O38      O      0.845290000000     0.147740000000     0.474900000000    -0.503042   
O39      O      0.827970000000     0.219610000000     0.537530000000    -0.506488   
O40      O      0.875460000000     0.172940000000     0.523890000000    -0.502738   
O41      O      0.816440000000     0.803000000000     0.426500000000    -0.503463   
O42      O      0.791530000000     0.831660000000     0.420400000000    -0.492875   
O43      O      0.817010000000     0.818610000000     0.543760000000    -0.495483   
O44      O      0.852130000000     0.812000000000     0.489080000000    -0.490424   
O45      O      0.811420000000     0.871080000000     0.446530000000    -0.494753   
O46      O      0.855610000000     0.843070000000     0.449960000000    -0.507112   
O47      O      0.784260000000     0.822850000000     0.510240000000    -0.507749   
O48      O      0.821480000000     0.869420000000     0.512500000000    -0.505449   
O49      O      0.164550000000     0.808810000000     0.532650000000    -0.502551   
O50      O      0.198280000000     0.822590000000     0.513520000000    -0.501343   
O51      O      0.188310000000     0.832810000000     0.410320000000    -0.500827   
O52      O      0.131220000000     0.819010000000     0.439770000000    -0.502605   
O53      O      0.177630000000     0.867020000000     0.503270000000    -0.501186   
O54      O      0.128870000000     0.836410000000     0.500390000000    -0.5041     
O55      O      0.176590000000     0.798550000000     0.432700000000    -0.5027     
O56      O      0.162540000000     0.868960000000     0.440480000000    -0.501784   
O57      O      0.190640000000     0.213820000000     0.434990000000    -0.503227   
O58      O      0.215600000000     0.185340000000     0.436310000000    -0.507489   
O59      O      0.193410000000     0.214280000000     0.533920000000    -0.502703   
O60      O      0.152530000000     0.189620000000     0.526890000000    -0.502208   
O61      O      0.179940000000     0.149520000000     0.448470000000    -0.504101   
O62      O      0.148340000000     0.191080000000     0.459230000000    -0.500456   
O63      O      0.215760000000     0.183300000000     0.535860000000    -0.495967   
O64      O      0.189310000000     0.146250000000     0.514200000000    -0.497632   
S1       S      0.169810000000     0.111430000000     0.395210000000    -0.00315793 
S2       S      0.888920000000     0.780720000000     0.507750000000    -0.000961962
S3       S      0.783740000000     0.115880000000     0.534770000000    -0.00262446 
S4       S      0.117530000000     0.205250000000     0.582810000000    -0.00372582 
S5       S      0.681300000000     0.764260000000     0.899380000000    -0.00439548 
S6       S      0.671070000000     0.756050000000     0.074590000000     0.00130614 
S7       S      0.682170000000     0.304830000000     0.847670000000     0.00216855 
S8       S      0.718340000000     0.344640000000     0.149590000000    -0.00140382 
S9       S      0.667160000000     0.409060000000     0.910360000000    -0.00570371 
S10      S      0.239820000000     0.694800000000     0.895470000000    -0.0049166  
S11      S      0.284940000000     0.666370000000     0.122580000000    -1.6513e-06 
S12      S      0.387360000000     0.735440000000     0.954610000000    -0.00340571 
S13      S      0.347540000000     0.261450000000     0.881490000000    -0.00519301 
S14      S      0.253110000000     0.180760000000     0.380330000000    -0.00349722 
S15      S      0.617500000000     0.282540000000     0.964790000000     0.000416865
S16      S      0.264370000000     0.606790000000     0.982240000000    -0.00171798 


