data_structure

_audit_creation_method RASPA-1.0
_audit_creation_date 2023-5-22
_audit_author_name 'Poobodin Mano'

_cell_length_a    43.8591
_cell_length_b    44.7839
_cell_length_c    46.8393
_cell_angle_alpha 90
_cell_angle_beta  90
_cell_angle_gamma 90
_cell_volume      92000.9

_symmetry_cell_setting          triclinic
_symmetry_space_group_name_Hall 'P 1'
_symmetry_space_group_name_H-M  'P 1'
_symmetry_Int_Tables_number     1

_symmetry_equiv_pos_as_xyz 'x,y,z'

loop_
_atom_site_label
_atom_site_type_symbol
_atom_site_fract_x
_atom_site_fract_y
_atom_site_fract_z
_atom_site_charge
Br1      Br     0.041890000000     0.132860000000     0.553260000000    -0.210451   
Br2      Br     0.894240000000     0.832470000000     0.454550000000    -0.220874   
Br3      Br     0.142600000000     0.228930000000     0.557580000000    -0.210995   
Br4      Br     0.391150000000     0.426180000000     0.458710000000    -0.21965    
Br5      Br     0.644280000000     0.087990000000     0.208270000000    -0.222475   
Br6      Br     0.485500000000     0.316570000000     0.357520000000    -0.218527   
Br7      Br     0.141060000000     0.030050000000     0.659930000000    -0.219311   
Br8      Br     0.639810000000     0.682310000000     0.702510000000    -0.21824    
Br9      Br     0.490370000000     0.876600000000     0.915330000000    -0.221937   
Br10     Br     0.124960000000     0.659840000000     0.211300000000    -0.205067   
Br11     Br     0.147120000000     0.733760000000     0.064070000000    -0.217692   
Br12     Br     0.236480000000     0.633970000000     0.170440000000    -0.207816   
Br13     Br     0.991150000000     0.379510000000     0.806250000000    -0.220611   
Br14     Br     0.796720000000     0.386370000000     0.922770000000    -0.222247   
Br15     Br     0.733680000000     0.560040000000     0.601600000000    -0.219455   
Br16     Br     0.048740000000     0.563970000000     0.110780000000    -0.217197   
C1       C      0.923290000000     0.413840000000     0.896370000000     0.413793   
C2       C      0.857070000000     0.411750000000     0.819810000000     0.41443    
C3       C      0.926300000000     0.348910000000     0.823560000000     0.425376   
C4       C      0.854960000000     0.350490000000     0.896520000000     0.425895   
C5       C      0.105800000000     0.594030000000     0.076700000000     0.431643   
C6       C      0.175110000000     0.667130000000     0.073850000000     0.430181   
C7       C      0.107160000000     0.663960000000     0.143860000000     0.43118    
C8       C      0.180360000000     0.597570000000     0.140940000000     0.432021   
C9       C      0.359040000000     0.846420000000     0.893840000000     0.41079    
C10      C      0.427800000000     0.909600000000     0.895050000000     0.426045   
C11      C      0.426130000000     0.848440000000     0.818280000000     0.413507   
C12      C      0.358190000000     0.912180000000     0.821070000000     0.412579   
C13      C      0.672550000000     0.096160000000     0.144390000000     0.427576   
C14      C      0.673980000000     0.166840000000     0.075060000000     0.415674   
C15      C      0.606200000000     0.094680000000     0.074260000000     0.41543    
C16      C      0.604300000000     0.166530000000     0.141580000000     0.416527   
C17      C      0.356800000000     0.415770000000     0.324960000000     0.415711   
C18      C      0.426210000000     0.345910000000     0.326320000000     0.427059   
C19      C      0.422120000000     0.415210000000     0.396330000000     0.43028    
C20      C      0.354450000000     0.343660000000     0.391760000000     0.417198   
C21      C      0.676780000000     0.589840000000     0.635960000000     0.425202   
C22      C      0.611380000000     0.669440000000     0.639420000000     0.424422   
C23      C      0.676960000000     0.669500000000     0.575650000000     0.414128   
C24      C      0.608500000000     0.592860000000     0.575260000000     0.412875   
C25      C      0.925220000000     0.846060000000     0.322490000000     0.415512   
C26      C      0.927100000000     0.918880000000     0.389400000000     0.417545   
C27      C      0.856640000000     0.916010000000     0.323220000000     0.41366    
C28      C      0.860680000000     0.846720000000     0.393980000000     0.428106   
C29      C      0.108380000000     0.162670000000     0.648780000000     0.414644   
C30      C      0.172730000000     0.164450000000     0.573250000000     0.425887   
C31      C      0.172350000000     0.094340000000     0.645570000000     0.425221   
C32      C      0.105480000000     0.100470000000     0.571530000000     0.426412   
C33      C      0.042270000000     0.077580000000     0.524220000000    -0.129803   
C34      C      0.972680000000     0.928160000000     0.415260000000     0.0816743  
C35      C      0.934000000000     0.965120000000     0.413380000000     0.0794653  
C36      C      0.990680000000     0.946580000000     0.432410000000    -0.0921089  
C37      C      0.030280000000     0.997090000000     0.454880000000    -0.0339804  
C38      C      0.047850000000     0.015190000000     0.472770000000    -0.0292237  
C39      C      0.998650000000     0.994520000000     0.459050000000    -0.00315584 
C40      C      0.951360000000     0.984080000000     0.430590000000    -0.0925366  
C41      C      0.034200000000     0.031080000000     0.495290000000    -0.0102449  
C42      C      0.081510000000     0.040210000000     0.524030000000    -0.102246   
C43      C      0.002530000000     0.028610000000     0.499360000000    -0.0287835  
C44      C      0.098520000000     0.057840000000     0.542680000000     0.0868747  
C45      C      0.059740000000     0.094920000000     0.542990000000     0.193991   
C46      C      0.984960000000     0.010570000000     0.481430000000    -0.0330701  
C47      C      0.980050000000     0.974870000000     0.440380000000     0.053829   
C48      C      0.052940000000     0.049900000000     0.514690000000     0.0731252  
C49      C      0.836520000000     0.804770000000     0.458050000000    -0.130481   
C50      C      0.683750000000     0.698160000000     0.533490000000     0.0793046  
C51      C      0.722830000000     0.696730000000     0.568450000000     0.0802305  
C52      C      0.701670000000     0.716320000000     0.516010000000    -0.0923892  
C53      C      0.738250000000     0.766890000000     0.489990000000    -0.0344754  
C54      C      0.756650000000     0.783800000000     0.471780000000    -0.029573   
C55      C      0.750690000000     0.743320000000     0.506050000000    -0.0030691  
C56      C      0.741360000000     0.714920000000     0.551520000000    -0.091314   
C57      C      0.787950000000     0.777610000000     0.469260000000    -0.0111008  
C58      C      0.797150000000     0.803180000000     0.422470000000    -0.103762   
C59      C      0.800460000000     0.754210000000     0.485470000000    -0.0288987  
C60      C      0.815660000000     0.820010000000     0.404400000000     0.0849042  
C61      C      0.854700000000     0.821760000000     0.439570000000     0.192461   
C62      C      0.782050000000     0.737240000000     0.503630000000    -0.0336097  
C63      C      0.730960000000     0.724780000000     0.524830000000     0.0530962  
C64      C      0.807450000000     0.795420000000     0.449680000000     0.0723036  
C65      C      0.197970000000     0.226490000000     0.526960000000    -0.130069   
C66      C      0.346380000000     0.297110000000     0.414890000000     0.079841   
C67      C      0.309070000000     0.335290000000     0.418190000000     0.0821111  
C68      C      0.328670000000     0.278330000000     0.431990000000    -0.0918306  
C69      C      0.294870000000     0.251720000000     0.482750000000    -0.0339117  
C70      C      0.276840000000     0.234140000000     0.500730000000    -0.0290929  
C71      C      0.281470000000     0.268810000000     0.460930000000    -0.00304394 
C72      C      0.290740000000     0.317080000000     0.435240000000    -0.0919576  
C73      C      0.245010000000     0.233200000000     0.497250000000    -0.0108062  
C74      C      0.234950000000     0.186980000000     0.526030000000    -0.103265   
C75      C      0.231680000000     0.249980000000     0.475150000000    -0.0291333  
C76      C      0.216670000000     0.170670000000     0.544760000000     0.0843612  
C77      C      0.179960000000     0.209720000000     0.545740000000     0.192939   
C78      C      0.249690000000     0.267600000000     0.457230000000    -0.0337057  
C79      C      0.300490000000     0.288250000000     0.442410000000     0.053815   
C80      C      0.225710000000     0.215260000000     0.516910000000     0.0724053  
C81      C      0.447790000000     0.456130000000     0.460490000000    -0.129984   
C82      C      0.599990000000     0.566300000000     0.532140000000     0.0790456  
C83      C      0.563140000000     0.564510000000     0.569160000000     0.078117   
C84      C      0.581760000000     0.548250000000     0.514870000000    -0.0922667  
C85      C      0.546060000000     0.496960000000     0.489090000000    -0.0340269  
C86      C      0.527420000000     0.479870000000     0.471250000000    -0.0293562  
C87      C      0.533520000000     0.519430000000     0.506460000000    -0.00343211 
C88      C      0.544320000000     0.546400000000     0.552440000000    -0.0923803  
C89      C      0.495780000000     0.484800000000     0.470400000000    -0.0107159  
C90      C      0.485290000000     0.460200000000     0.423370000000    -0.102929   
C91      C      0.483190000000     0.507090000000     0.487930000000    -0.0293964  
C92      C      0.466610000000     0.443170000000     0.405650000000     0.0871095  
C93      C      0.429390000000     0.438980000000     0.442330000000     0.193546   
C94      C      0.501840000000     0.524220000000     0.505740000000    -0.0338083  
C95      C      0.553470000000     0.538140000000     0.524870000000     0.0527223  
C96      C      0.476040000000     0.466820000000     0.451180000000     0.0728433  
C97      C      0.699120000000     0.054990000000     0.208050000000    -0.130875   
C98      C      0.846980000000     0.938430000000     0.278170000000     0.0769532  
C99      C      0.812270000000     0.945570000000     0.316390000000     0.0782142  
C100     C      0.828970000000     0.956050000000     0.260280000000    -0.0931289  
C101     C      0.777540000000     0.979780000000     0.223290000000    -0.034749   
C102     C      0.759320000000     0.997590000000     0.205700000000    -0.0299403  
C103     C      0.782580000000     0.987700000000     0.251950000000    -0.00390435 
C104     C      0.793730000000     0.963330000000     0.299090000000    -0.0929986  
C105     C      0.745700000000     0.023720000000     0.216380000000    -0.0113906  
C106     C      0.734590000000     0.048480000000     0.169510000000    -0.103859   
C107     C      0.750770000000     0.031660000000     0.245030000000    -0.0296999  
C108     C      0.716120000000     0.066390000000     0.152370000000     0.0843969  
C109     C      0.680880000000     0.072880000000     0.190450000000     0.192097   
C110     C      0.769000000000     0.013860000000     0.262610000000    -0.0342345  
C111     C      0.801980000000     0.968790000000     0.270660000000     0.0522235  
C112     C      0.726230000000     0.042620000000     0.197730000000     0.0719337  
C113     C      0.488110000000     0.297000000000     0.300240000000    -0.130737   
C114     C      0.561000000000     0.173090000000     0.171340000000     0.0818363  
C115     C      0.595280000000     0.213300000000     0.163940000000     0.0793056  
C116     C      0.543200000000     0.190730000000     0.189410000000    -0.0921418  
C117     C      0.501180000000     0.238260000000     0.213640000000    -0.0344921  
C118     C      0.483830000000     0.255880000000     0.232130000000    -0.0296262  
C119     C      0.533210000000     0.239300000000     0.214450000000    -0.00344254 
C120     C      0.578020000000     0.231570000000     0.181910000000    -0.0926208  
C121     C      0.498090000000     0.274950000000     0.251890000000    -0.0112338  
C122     C      0.453280000000     0.307960000000     0.262120000000    -0.103811   
C123     C      0.530120000000     0.276050000000     0.252650000000    -0.0292898  
C124     C      0.436110000000     0.325230000000     0.280940000000     0.083456   
C125     C      0.470490000000     0.314460000000     0.318810000000     0.193052   
C126     C      0.547470000000     0.258440000000     0.234140000000    -0.0336233  
C127     C      0.551670000000     0.220330000000     0.194980000000     0.0534713  
C128     C      0.479610000000     0.293570000000     0.271650000000     0.0720627  
C129     C      0.197800000000     0.029660000000     0.688390000000    -0.130417   
C130     C      0.349650000000     0.957380000000     0.795810000000     0.0773766  
C131     C      0.313080000000     0.918450000000     0.793610000000     0.0773577  
C132     C      0.331530000000     0.975360000000     0.778340000000    -0.0931787  
C133     C      0.296280000000     0.001360000000     0.728310000000    -0.0347634  
C134     C      0.277690000000     0.019480000000     0.711360000000    -0.0300159  
C135     C      0.283630000000     0.983790000000     0.750180000000    -0.00399021 
C136     C      0.294330000000     0.935870000000     0.776170000000    -0.0930686  
C137     C      0.246010000000     0.020510000000     0.715920000000    -0.0111553  
C138     C      0.235680000000     0.068320000000     0.689740000000    -0.103368   
C139     C      0.233380000000     0.002920000000     0.737790000000    -0.0297336  
C140     C      0.217030000000     0.085930000000     0.672480000000     0.083574   
C141     C      0.179400000000     0.047750000000     0.671090000000     0.19222    
C142     C      0.251960000000     0.984750000000     0.754700000000    -0.0341794  
C143     C      0.303430000000     0.964740000000     0.768380000000     0.0521132  
C144     C      0.226240000000     0.039760000000     0.697830000000     0.0715826  
C145     C      0.584950000000     0.715210000000     0.700230000000    -0.130277   
C146     C      0.468340000000     0.845490000000     0.786600000000     0.0796024  
C147     C      0.436180000000     0.803490000000     0.793080000000     0.0789602  
C148     C      0.486690000000     0.829350000000     0.767730000000    -0.092104   
C149     C      0.487050000000     0.760550000000     0.723370000000    -0.0345773  
C150     C      0.505790000000     0.743000000000     0.706020000000    -0.0296071  
C151     C      0.499720000000     0.781530000000     0.742310000000    -0.00328302 
C152     C      0.454120000000     0.786640000000     0.774450000000    -0.0922144  
C153     C      0.537690000000     0.746060000000     0.707050000000    -0.0109566  
C154     C      0.549450000000     0.718980000000     0.661390000000    -0.103362   
C155     C      0.550330000000     0.767380000000     0.725650000000    -0.0292356  
C156     C      0.568020000000     0.700050000000     0.645370000000     0.0837055  
C157     C      0.603330000000     0.696340000000     0.683700000000     0.192283   
C158     C      0.531610000000     0.784820000000     0.743110000000    -0.0336721  
C159     C      0.479850000000     0.799450000000     0.761580000000     0.0528373  
C160     C      0.557670000000     0.726660000000     0.689260000000     0.0717037  
C161     C      0.490960000000     0.933070000000     0.942220000000    -0.130376   
C162     C      0.561600000000     0.085660000000     0.046850000000     0.0786243  
C163     C      0.599610000000     0.048210000000     0.050580000000     0.0777548  
C164     C      0.543800000000     0.067050000000     0.029690000000    -0.0933666  
C165     C      0.503710000000     0.016450000000     0.008350000000    -0.03471    
C166     C      0.486080000000     0.997870000000     0.990990000000    -0.0299519  
C167     C      0.535460000000     0.018250000000     0.004550000000    -0.00387005 
C168     C      0.582450000000     0.029040000000     0.033400000000    -0.0928959  
C169     C      0.499750000000     0.980680000000     0.969370000000    -0.0112368  
C170     C      0.452730000000     0.971370000000     0.940290000000    -0.103599   
C171     C      0.531530000000     0.982340000000     0.965700000000    -0.0296411  
C172     C      0.435540000000     0.953330000000     0.922160000000     0.0837754  
C173     C      0.473300000000     0.915310000000     0.923950000000     0.192244   
C174     C      0.549180000000     0.000890000000     0.983110000000    -0.0343186  
C175     C      0.554130000000     0.038340000000     0.022780000000     0.0524278  
C176     C      0.480890000000     0.961430000000     0.950460000000     0.0715823  
C177     C      0.074930000000     0.699400000000     0.208380000000    -0.129224   
C178     C      0.967030000000     0.839280000000     0.290980000000     0.0796222  
C179     C      0.933860000000     0.798770000000     0.300930000000     0.0784323  
C180     C      0.984450000000     0.821310000000     0.272910000000    -0.0931949  
C181     C      0.005910000000     0.782530000000     0.223600000000    -0.0338066  
C182     C      0.023930000000     0.764430000000     0.206110000000    -0.0291988  
C183     C      0.995060000000     0.771840000000     0.249940000000    -0.00350602 
C184     C      0.950870000000     0.780110000000     0.283100000000    -0.0927128  
C185     C      0.031630000000     0.735300000000     0.214630000000    -0.0101358  
C186     C      0.047190000000     0.715230000000     0.166860000000    -0.101767   
C187     C      0.020600000000     0.724540000000     0.240870000000    -0.0288445  
C188     C      0.066140000000     0.697440000000     0.150060000000     0.0902535  
C189     C      0.093790000000     0.681790000000     0.191080000000     0.195474   
C190     C      0.002450000000     0.742580000000     0.258300000000    -0.0333175  
C191     C      0.976500000000     0.791320000000     0.268820000000     0.0532518  
C192     C      0.051440000000     0.716350000000     0.196380000000     0.0740905  
C193     C      0.202240000000     0.732500000000     0.032900000000    -0.129803   
C194     C      0.350780000000     0.801260000000     0.919290000000     0.0785028  
C195     C      0.314950000000     0.840740000000     0.922820000000     0.077905   
C196     C      0.333030000000     0.783480000000     0.937280000000    -0.0923944  
C197     C      0.281470000000     0.745410000000     0.960870000000    -0.0342185  
C198     C      0.263060000000     0.727750000000     0.978420000000    -0.029578   
C199     C      0.286140000000     0.775770000000     0.967110000000    -0.00346999 
C200     C      0.296690000000     0.823610000000     0.940960000000    -0.0926816  
C201     C      0.248930000000     0.740020000000     0.002690000000    -0.0104717  
C202     C      0.237390000000     0.691780000000     0.027710000000    -0.102632   
C203     C      0.253670000000     0.770380000000     0.008960000000    -0.0290382  
C204     C      0.218710000000     0.674430000000     0.045170000000     0.0870892  
C205     C      0.183830000000     0.714670000000     0.050450000000     0.193737   
C206     C      0.272020000000     0.788060000000     0.991350000000    -0.0338019  
C207     C      0.305560000000     0.794550000000     0.948290000000     0.0526493  
C208     C      0.229300000000     0.721210000000     0.021360000000     0.0727506  
C209     C      0.241410000000     0.574800000000     0.190780000000    -0.129541   
C210     C      0.315380000000     0.422120000000     0.292910000000     0.0794112  
C211     C      0.347960000000     0.462960000000     0.303270000000     0.0784453  
C212     C      0.298100000000     0.439890000000     0.274530000000    -0.0931363  
C213     C      0.255670000000     0.486830000000     0.250210000000    -0.0337007  
C214     C      0.238520000000     0.504730000000     0.231800000000    -0.0290576  
C215     C      0.287630000000     0.489180000000     0.250960000000    -0.00349851 
C216     C      0.331160000000     0.481390000000     0.285070000000    -0.0924705  
C217     C      0.252910000000     0.525450000000     0.213730000000    -0.0103384  
C218     C      0.210010000000     0.532620000000     0.179090000000    -0.102525   
C219     C      0.284850000000     0.527890000000     0.214520000000    -0.0293504  
C220     C      0.192720000000     0.550910000000     0.161260000000     0.0872906  
C221     C      0.223670000000     0.592780000000     0.172790000000     0.196886   
C222     C      0.302020000000     0.509940000000     0.232900000000    -0.0336212  
C223     C      0.305860000000     0.469940000000     0.270420000000     0.0530092  
C224     C      0.234590000000     0.544510000000     0.194240000000     0.0735899  
C225     C      0.991490000000     0.322540000000     0.780380000000    -0.130434   
C226     C      0.063320000000     0.170550000000     0.675860000000     0.0818601  
C227     C      0.102840000000     0.206680000000     0.676600000000     0.0816745  
C228     C      0.045350000000     0.188410000000     0.693590000000    -0.0909769  
C229     C      0.005560000000     0.238870000000     0.715350000000    -0.033872   
C230     C      0.987470000000     0.257740000000     0.732000000000    -0.0287057  
C231     C      0.036950000000     0.236020000000     0.720830000000    -0.00245702 
C232     C      0.085470000000     0.225120000000     0.694320000000    -0.0911163  
C233     C      0.000340000000     0.274250000000     0.754490000000    -0.011047   
C234     C      0.952100000000     0.285320000000     0.781110000000    -0.1036     
C235     C      0.031720000000     0.271410000000     0.759990000000    -0.0289771  
C236     C      0.934430000000     0.304230000000     0.797990000000     0.0843019  
C237     C      0.973300000000     0.341220000000     0.797300000000     0.192631   
C238     C      0.049810000000     0.252500000000     0.743360000000    -0.033821   
C239     C      0.056220000000     0.216200000000     0.702840000000     0.053928   
C240     C      0.981070000000     0.294300000000     0.772210000000     0.0723941  
C241     C      0.793190000000     0.328140000000     0.945770000000    -0.130388   
C242     C      0.717130000000     0.198280000000     0.069130000000     0.0783587  
C243     C      0.683240000000     0.190350000000     0.030430000000     0.0770771  
C244     C      0.735160000000     0.217010000000     0.052300000000    -0.09317    
C245     C      0.778130000000     0.241230000000     0.007130000000    -0.0344919  
C246     C      0.796020000000     0.259580000000     0.989760000000    -0.0300855  
C247     C      0.746130000000     0.242270000000     0.005520000000    -0.00398545 
C248     C      0.700770000000     0.208910000000     0.012970000000    -0.0930969  
C249     C      0.782360000000     0.279400000000     0.970310000000    -0.0111241  
C250     C      0.827910000000     0.287340000000     0.938870000000    -0.103559   
C251     C      0.750360000000     0.280540000000     0.968780000000    -0.0297262  
C252     C      0.845310000000     0.305410000000     0.920950000000     0.0839743  
C253     C      0.811020000000     0.345910000000     0.927640000000     0.192208   
C254     C      0.732470000000     0.262220000000     0.986180000000    -0.0341582  
C255     C      0.727110000000     0.222540000000     0.023820000000     0.0521641  
C256     C      0.801410000000     0.298560000000     0.951460000000     0.0716326  
C257     C      0.737510000000     0.537440000000     0.657830000000    -0.129823   
C258     C      0.814240000000     0.415100000000     0.788890000000     0.0800814  
C259     C      0.848530000000     0.455820000000     0.792780000000     0.080159   
C260     C      0.796280000000     0.431090000000     0.769570000000    -0.0917303  
C261     C      0.753240000000     0.476430000000     0.743260000000    -0.0337362  
C262     C      0.735170000000     0.493690000000     0.725050000000    -0.0289792  
C263     C      0.785240000000     0.477980000000     0.741840000000    -0.00273841 
C264     C      0.831050000000     0.472490000000     0.773630000000    -0.0914866  
C265     C      0.748610000000     0.513040000000     0.705020000000    -0.0102347  
C266     C      0.703000000000     0.545750000000     0.696790000000    -0.101733   
C267     C      0.780610000000     0.514360000000     0.703420000000    -0.0285814  
C268     C      0.685720000000     0.564330000000     0.679230000000     0.0861123  
C269     C      0.719860000000     0.556290000000     0.640580000000     0.193614   
C270     C      0.798680000000     0.497010000000     0.721550000000    -0.0333886  
C271     C      0.804480000000     0.460250000000     0.761800000000     0.0533852  
C272     C      0.729410000000     0.532200000000     0.686280000000     0.0726503  
C273     C      0.044040000000     0.543130000000     0.054050000000    -0.130517   
C274     C      0.932010000000     0.459350000000     0.921100000000     0.0806344  
C275     C      0.966360000000     0.418900000000     0.926760000000     0.0806759  
C276     C      0.949580000000     0.477000000000     0.939360000000    -0.0916634  
C277     C      0.027490000000     0.483050000000     0.968680000000    -0.0341903  
C278     C      0.045580000000     0.500850000000     0.986390000000    -0.02923    
C279     C      0.995510000000     0.484060000000     0.970640000000    -0.00294697 
C280     C      0.984480000000     0.435930000000     0.945100000000    -0.0916337  
C281     C      0.032140000000     0.520060000000     0.006520000000    -0.0108778  
C282     C      0.077110000000     0.553630000000     0.014470000000    -0.103185   
C283     C      0.000160000000     0.521000000000     0.008550000000    -0.0290175  
C284     C      0.094750000000     0.571650000000     0.032280000000     0.0846454  
C285     C      0.062090000000     0.561330000000     0.071570000000     0.193521   
C286     C      0.982070000000     0.503220000000     0.990820000000    -0.0337713  
C287     C      0.976260000000     0.465410000000     0.951540000000     0.0534641  
C288     C      0.051360000000     0.539150000000     0.025250000000     0.072452   
H1       H      0.911920000000     0.973030000000     0.406220000000     0.0318593  
H2       H      0.120400000000     0.049080000000     0.549480000000     0.0359587  
H3       H      0.960720000000     0.008710000000     0.485460000000     0.0443145  
H4       H      0.072100000000     0.016970000000     0.468760000000     0.0413563  
H5       H      0.090560000000     0.018790000000     0.517440000000     0.0620429  
H6       H      0.041440000000     0.985350000000     0.437570000000     0.0423729  
H7       H      0.020480000000     0.085960000000     0.516830000000     0.0845025  
H8       H      0.942440000000     0.005920000000     0.435980000000     0.0581199  
H9       H      0.012570000000     0.938450000000     0.439770000000     0.0593946  
H10      H      0.991360000000     0.040150000000     0.516770000000     0.0453322  
H11      H      0.981610000000     0.906340000000     0.409720000000     0.0359119  
H12      H      0.731740000000     0.689410000000     0.588870000000     0.0370114  
H13      H      0.806500000000     0.825420000000     0.383520000000     0.0315856  
H14      H      0.792290000000     0.718950000000     0.515320000000     0.0446973  
H15      H      0.746420000000     0.801980000000     0.459910000000     0.0408225  
H16      H      0.774950000000     0.796030000000     0.414970000000     0.0599949  
H17      H      0.714300000000     0.772490000000     0.491690000000     0.0417374  
H18      H      0.844980000000     0.799230000000     0.479130000000     0.0843537  
H19      H      0.763640000000     0.721290000000     0.559400000000     0.0596634  
H20      H      0.692820000000     0.723100000000     0.495420000000     0.0571355  
H21      H      0.824420000000     0.748620000000     0.483710000000     0.0447284  
H22      H      0.661370000000     0.691840000000     0.525730000000     0.0324315  
H23      H      0.300820000000     0.357530000000     0.413270000000     0.0360561  
H24      H      0.224900000000     0.148820000000     0.551110000000     0.0318373  
H25      H      0.238730000000     0.280110000000     0.440310000000     0.0432099  
H26      H      0.287800000000     0.221810000000     0.517770000000     0.0414949  
H27      H      0.256090000000     0.177250000000     0.518530000000     0.0599859  
H28      H      0.319240000000     0.252480000000     0.486400000000     0.0438865  
H29      H      0.190460000000     0.248560000000     0.520610000000     0.0848223  
H30      H      0.269300000000     0.325780000000     0.443130000000     0.060039   
H31      H      0.336900000000     0.256080000000     0.436750000000     0.0584016  
H32      H      0.207300000000     0.249340000000     0.471560000000     0.0444959  
H33      H      0.368040000000     0.288650000000     0.407210000000     0.0355152  
H34      H      0.555250000000     0.570500000000     0.590340000000     0.0322464  
H35      H      0.474940000000     0.438700000000     0.384270000000     0.0346868  
H36      H      0.491490000000     0.541650000000     0.518510000000     0.0426608  
H37      H      0.537770000000     0.462540000000     0.458360000000     0.0428519  
H38      H      0.506800000000     0.468400000000     0.415140000000     0.0613723  
H39      H      0.570300000000     0.492360000000     0.489460000000     0.0432679  
H40      H      0.440160000000     0.460720000000     0.482060000000     0.0842073  
H41      H      0.522830000000     0.538760000000     0.561180000000     0.0577917  
H42      H      0.589590000000     0.542750000000     0.493580000000     0.0580571  
H43      H      0.458950000000     0.511720000000     0.487490000000     0.0439201  
H44      H      0.621590000000     0.573860000000     0.523510000000     0.035079   
H45      H      0.805080000000     0.941810000000     0.338250000000     0.0324171  
H46      H      0.723760000000     0.070320000000     0.130670000000     0.0312264  
H47      H      0.772820000000     0.020860000000     0.284450000000     0.0425187  
H48      H      0.755510000000     0.990620000000     0.183850000000     0.040551   
H49      H      0.755570000000     0.039620000000     0.160730000000     0.0594191  
H50      H      0.787290000000     0.959540000000     0.214530000000     0.0414473  
H51      H      0.691870000000     0.050450000000     0.229730000000     0.0836872  
H52      H      0.772850000000     0.972410000000     0.307890000000     0.0574741  
H53      H      0.836430000000     0.959990000000     0.238560000000     0.0563359  
H54      H      0.741010000000     0.051900000000     0.253780000000     0.0435708  
H55      H      0.867760000000     0.929060000000     0.269380000000     0.0309009  
H56      H      0.615530000000     0.222800000000     0.154240000000     0.0317558  
H57      H      0.415930000000     0.335960000000     0.272350000000     0.0307129  
H58      H      0.572090000000     0.259550000000     0.235530000000     0.0436866  
H59      H      0.459210000000     0.254290000000     0.231170000000     0.0405111  
H60      H      0.446060000000     0.306240000000     0.240060000000     0.0592984  
H61      H      0.489480000000     0.223980000000     0.198530000000     0.0415053  
H62      H      0.508210000000     0.285760000000     0.308320000000     0.0843377  
H63      H      0.585170000000     0.254450000000     0.185300000000     0.0573558  
H64      H      0.523220000000     0.181010000000     0.199330000000     0.0590175  
H65      H      0.541810000000     0.290730000000     0.267410000000     0.0438727  
H66      H      0.553810000000     0.150230000000     0.167730000000     0.0360788  
H67      H      0.305240000000     0.896240000000     0.799200000000     0.0313776  
H68      H      0.225520000000     0.107900000000     0.666840000000     0.0316639  
H69      H      0.241570000000     0.971840000000     0.771660000000     0.0425131  
H70      H      0.288110000000     0.032350000000     0.694400000000     0.0405783  
H71      H      0.257320000000     0.077250000000     0.696900000000     0.059407   
H72      H      0.320540000000     0.000800000000     0.724010000000     0.0413969  
H73      H      0.190030000000     0.007470000000     0.694040000000     0.0836928  
H74      H      0.272970000000     0.926640000000     0.768640000000     0.0574167  
H75      H      0.339290000000     0.997660000000     0.773100000000     0.0565124  
H76      H      0.209140000000     0.003530000000     0.742170000000     0.0434382  
H77      H      0.371120000000     0.966510000000     0.803270000000     0.0319356  
H78      H      0.416640000000     0.792660000000     0.802790000000     0.0329317  
H79      H      0.560480000000     0.694770000000     0.623900000000     0.0311339  
H80      H      0.542220000000     0.800510000000     0.757630000000     0.0439637  
H81      H      0.495240000000     0.726620000000     0.692180000000     0.0405985  
H82      H      0.528810000000     0.727680000000     0.651810000000     0.0593961  
H83      H      0.462590000000     0.757670000000     0.721890000000     0.0413731  
H84      H      0.591730000000     0.720370000000     0.721910000000     0.0842161  
H85      H      0.448160000000     0.763510000000     0.770680000000     0.0575793  
H86      H      0.506030000000     0.840350000000     0.757940000000     0.0577613  
H87      H      0.574770000000     0.770640000000     0.726750000000     0.0438698  
H88      H      0.474480000000     0.868510000000     0.790920000000     0.0336991  
H89      H      0.621330000000     0.040150000000     0.058530000000     0.031542   
H90      H      0.414000000000     0.962330000000     0.914710000000     0.031507   
H91      H      0.573520000000     0.002070000000     0.979380000000     0.0422742  
H92      H      0.461730000000     0.996750000000     0.994700000000     0.0403714  
H93      H      0.444150000000     0.993290000000     0.945850000000     0.0592035  
H94      H      0.492510000000     0.029170000000     0.024980000000     0.0417568  
H95      H      0.512440000000     0.924530000000     0.950240000000     0.0835637  
H96      H      0.591140000000     0.006910000000     0.028820000000     0.0575124  
H97      H      0.522240000000     0.075290000000     0.021620000000     0.0565313  
H98      H      0.542740000000     0.969750000000     0.948980000000     0.0434954  
H99      H      0.552830000000     0.107730000000     0.051680000000     0.0315275  
H100     H      0.914130000000     0.789330000000     0.311570000000     0.032247   
H101     H      0.061790000000     0.697340000000     0.127260000000     0.0389313  
H102     H      0.994650000000     0.733790000000     0.278560000000     0.0441114  
H103     H      0.032270000000     0.773450000000     0.186130000000     0.0432979  
H104     H      0.029060000000     0.727780000000     0.156730000000     0.0631868  
H105     H      0.000340000000     0.804870000000     0.216440000000     0.0424847  
H106     H      0.078940000000     0.700150000000     0.231190000000     0.0856981  
H107     H      0.943760000000     0.757130000000     0.280300000000     0.0582334  
H108     H      0.004310000000     0.830770000000     0.262560000000     0.0582154  
H109     H      0.025890000000     0.702080000000     0.247880000000     0.0455759  
H110     H      0.974020000000     0.862340000000     0.293700000000     0.0326671  
H111     H      0.307180000000     0.863030000000     0.917440000000     0.0317221  
H112     H      0.226200000000     0.651790000000     0.049490000000     0.0340498  
H113     H      0.275500000000     0.811270000000     0.996960000000     0.0430299  
H114     H      0.259510000000     0.704590000000     0.972690000000     0.0410673  
H115     H      0.258330000000     0.682200000000     0.019560000000     0.0611971  
H116     H      0.291640000000     0.735370000000     0.942110000000     0.0422834  
H117     H      0.195090000000     0.755070000000     0.027950000000     0.0839044  
H118     H      0.275480000000     0.832930000000     0.948770000000     0.0575225  
H119     H      0.340940000000     0.761290000000     0.942710000000     0.058159   
H120     H      0.243550000000     0.780440000000     0.027730000000     0.0446551  
H121     H      0.371870000000     0.791880000000     0.911180000000     0.0348493  
H122     H      0.367330000000     0.472650000000     0.314290000000     0.0323783  
H123     H      0.173840000000     0.540510000000     0.150080000000     0.03506    
H124     H      0.326620000000     0.512000000000     0.232620000000     0.0425712  
H125     H      0.213920000000     0.502650000000     0.232040000000     0.0435652  
H126     H      0.204220000000     0.509180000000     0.180800000000     0.061461   
H127     H      0.243810000000     0.471440000000     0.264160000000     0.0430543  
H128     H      0.260240000000     0.584650000000     0.202430000000     0.0855487  
H129     H      0.337750000000     0.504580000000     0.282820000000     0.0583363  
H130     H      0.279000000000     0.429970000000     0.263350000000     0.0571442  
H131     H      0.296650000000     0.543350000000     0.200590000000     0.0438277  
H132     H      0.308670000000     0.398960000000     0.295440000000     0.0322867  
H133     H      0.125180000000     0.214550000000     0.670150000000     0.0365963  
H134     H      0.912230000000     0.296000000000     0.804480000000     0.0322748  
H135     H      0.073820000000     0.250500000000     0.748420000000     0.042837   
H136     H      0.963460000000     0.259760000000     0.726950000000     0.0419823  
H137     H      0.943230000000     0.263530000000     0.775500000000     0.0602803  
H138     H      0.995020000000     0.226910000000     0.697850000000     0.0450435  
H139     H      0.013670000000     0.330260000000     0.773350000000     0.0843399  
H140     H      0.094680000000     0.246530000000     0.700710000000     0.0599177  
H141     H      0.023090000000     0.180400000000     0.700050000000     0.0593627  
H142     H      0.042230000000     0.283490000000     0.777440000000     0.0438294  
H143     H      0.054000000000     0.149310000000     0.668980000000     0.0384014  
H144     H      0.663080000000     0.180160000000     0.021220000000     0.0304531  
H145     H      0.865500000000     0.295440000000     0.911570000000     0.0321339  
H146     H      0.707890000000     0.263860000000     0.984600000000     0.0421072  
H147     H      0.820590000000     0.258350000000     0.991730000000     0.04043    
H148     H      0.834990000000     0.264470000000     0.942390000000     0.0595941  
H149     H      0.789430000000     0.225910000000     0.021570000000     0.0412597  
H150     H      0.773090000000     0.337640000000     0.955700000000     0.0835624  
H151     H      0.693900000000     0.212200000000     0.990990000000     0.0564781  
H152     H      0.755080000000     0.227370000000     0.061710000000     0.057139   
H153     H      0.739090000000     0.295320000000     0.953820000000     0.0433881  
H154     H      0.724100000000     0.194620000000     0.091070000000     0.0322293  
H155     H      0.868790000000     0.466200000000     0.801610000000     0.0356355  
H156     H      0.665700000000     0.574580000000     0.688640000000     0.037725   
H157     H      0.823240000000     0.498500000000     0.719590000000     0.0438504  
H158     H      0.710610000000     0.491820000000     0.726650000000     0.0415915  
H159     H      0.695960000000     0.542630000000     0.718750000000     0.0624701  
H160     H      0.742080000000     0.462260000000     0.758810000000     0.043392   
H161     H      0.757410000000     0.526620000000     0.648820000000     0.0842809  
H162     H      0.838080000000     0.495070000000     0.768600000000     0.0591554  
H163     H      0.776220000000     0.420530000000     0.760650000000     0.0582422  
H164     H      0.791770000000     0.529230000000     0.688480000000     0.0450664  
H165     H      0.807080000000     0.392660000000     0.794430000000     0.0338491  
H166     H      0.973520000000     0.396200000000     0.922260000000     0.0350291  
H167     H      0.114380000000     0.582480000000     0.022740000000     0.0317418  
H168     H      0.957520000000     0.504320000000     0.993090000000     0.0437242  
H169     H      0.070140000000     0.499360000000     0.984470000000     0.0412901  
H170     H      0.083450000000     0.551470000000     0.992220000000     0.0605979  
H171     H      0.038580000000     0.468780000000     0.953170000000     0.043554   
H172     H      0.024480000000     0.531790000000     0.063110000000     0.0843486  
H173     H      0.004680000000     0.425920000000     0.954350000000     0.0584569  
H174     H      0.942540000000     0.499780000000     0.943460000000     0.059086   
H175     H      0.989060000000     0.535770000000     0.023610000000     0.0444897  
H176     H      0.911660000000     0.469220000000     0.911930000000     0.0359829  
In1      In     0.890130000000     0.381250000000     0.858970000000     2.42399    
In2      In     0.142050000000     0.630560000000     0.108240000000     2.42905    
In3      In     0.392820000000     0.879210000000     0.857030000000     2.41696    
In4      In     0.639420000000     0.130960000000     0.108460000000     2.41303    
In5      In     0.389890000000     0.380210000000     0.359880000000     2.41984    
In6      In     0.643310000000     0.630510000000     0.606570000000     2.42257    
In7      In     0.892330000000     0.881920000000     0.357290000000     2.41397    
In8      In     0.140080000000     0.130350000000     0.610090000000     2.43186    
N1       N      0.087820000000     0.084840000000     0.552450000000    -0.20712    
N2       N      0.944570000000     0.937370000000     0.405910000000    -0.194584   
N3       N      0.844120000000     0.829530000000     0.412720000000    -0.208622   
N4       N      0.694390000000     0.688250000000     0.559340000000    -0.193976   
N5       N      0.189410000000     0.181740000000     0.554700000000    -0.208063   
N6       N      0.336660000000     0.325370000000     0.408180000000    -0.193857   
N7       N      0.438940000000     0.432380000000     0.414870000000    -0.208108   
N8       N      0.590640000000     0.574500000000     0.558970000000    -0.194463   
N9       N      0.689470000000     0.078630000000     0.162530000000    -0.208837   
N10      N      0.838670000000     0.933280000000     0.305980000000    -0.195229   
N11      N      0.444400000000     0.328580000000     0.309090000000    -0.20858    
N12      N      0.586860000000     0.184290000000     0.158830000000    -0.19413    
N13      N      0.189160000000     0.075910000000     0.663000000000    -0.208392   
N14      N      0.340400000000     0.929230000000     0.803450000000    -0.195182   
N15      N      0.594680000000     0.688560000000     0.656260000000    -0.208174   
N16      N      0.443420000000     0.832570000000     0.799270000000    -0.19426    
N17      N      0.445640000000     0.925630000000     0.913700000000    -0.208765   
N18      N      0.589210000000     0.076250000000     0.057240000000    -0.195278   
N19      N      0.089350000000     0.680840000000     0.161820000000    -0.206183   
N20      N      0.941970000000     0.828070000000     0.304850000000    -0.194891   
N21      N      0.192160000000     0.685560000000     0.056620000000    -0.207841   
N22      N      0.341690000000     0.829560000000     0.912010000000    -0.194162   
N23      N      0.199090000000     0.580810000000     0.158190000000    -0.20689    
N24      N      0.340090000000     0.433590000000     0.307120000000    -0.19488    
N25      N      0.944770000000     0.331900000000     0.806300000000    -0.208402   
N26      N      0.091670000000     0.179800000000     0.667220000000    -0.192869   
N27      N      0.837030000000     0.334380000000     0.915030000000    -0.208576   
N28      N      0.691410000000     0.185090000000     0.058250000000    -0.195492   
N29      N      0.694140000000     0.570100000000     0.651480000000    -0.207277   
N30      N      0.840050000000     0.427460000000     0.800470000000    -0.193986   
N31      N      0.087470000000     0.575700000000     0.060580000000    -0.208994   
N32      N      0.940440000000     0.430610000000     0.914780000000    -0.193289   
O1       O      0.848760000000     0.376580000000     0.888300000000    -0.482182   
O2       O      0.879090000000     0.340050000000     0.885710000000    -0.501427   
O3       O      0.881130000000     0.422000000000     0.830880000000    -0.492428   
O4       O      0.899440000000     0.423670000000     0.884540000000    -0.489986   
O5       O      0.900490000000     0.340040000000     0.832010000000    -0.500429   
O6       O      0.930260000000     0.387440000000     0.889490000000    -0.494609   
O7       O      0.849780000000     0.385980000000     0.828360000000    -0.497641   
O8       O      0.933540000000     0.374320000000     0.832870000000    -0.480142   
O9       O      0.158050000000     0.586450000000     0.127560000000    -0.500607   
O10      O      0.183250000000     0.625330000000     0.137500000000    -0.469281   
O11      O      0.151020000000     0.675220000000     0.086260000000    -0.479113   
O12      O      0.129090000000     0.606890000000     0.066660000000    -0.506867   
O13      O      0.129530000000     0.648640000000     0.152180000000    -0.474695   
O14      O      0.101060000000     0.599730000000     0.102640000000    -0.479685   
O15      O      0.182450000000     0.640350000000     0.078840000000    -0.497733   
O16      O      0.102520000000     0.662490000000     0.117260000000    -0.485626   
O17      O      0.383170000000     0.921340000000     0.831180000000    -0.49864    
O18      O      0.350770000000     0.886190000000     0.828910000000    -0.501045   
O19      O      0.435330000000     0.884670000000     0.884790000000    -0.48079    
O20      O      0.383810000000     0.837180000000     0.883300000000    -0.491376   
O21      O      0.432490000000     0.874840000000     0.825650000000    -0.496458   
O22      O      0.351420000000     0.872330000000     0.885930000000    -0.498963   
O23      O      0.402400000000     0.919030000000     0.886110000000    -0.502156   
O24      O      0.402800000000     0.837700000000     0.830290000000    -0.495228   
O25      O      0.628560000000     0.175550000000     0.129880000000    -0.501018   
O26      O      0.597700000000     0.139620000000     0.136370000000    -0.48652    
O27      O      0.680640000000     0.161030000000     0.100690000000    -0.495509   
O28      O      0.680550000000     0.101520000000     0.118980000000    -0.497072   
O29      O      0.597710000000     0.120700000000     0.080960000000    -0.496136   
O30      O      0.647800000000     0.108370000000     0.151360000000    -0.483964   
O31      O      0.649850000000     0.154500000000     0.066260000000    -0.505669   
O32      O      0.631590000000     0.087040000000     0.084690000000    -0.502577   
O33      O      0.380020000000     0.335720000000     0.381980000000    -0.496283   
O34      O      0.346780000000     0.370000000000     0.385370000000    -0.490552   
O35      O      0.402340000000     0.358570000000     0.317310000000    -0.507023   
O36      O      0.350360000000     0.388660000000     0.329320000000    -0.495231   
O37      O      0.396920000000     0.403480000000     0.402710000000    -0.48296    
O38      O      0.380010000000     0.425000000000     0.338290000000    -0.501272   
O39      O      0.431560000000     0.350670000000     0.352340000000    -0.473155   
O40      O      0.430880000000     0.409380000000     0.371230000000    -0.494514   
O41      O      0.600830000000     0.601640000000     0.599870000000    -0.498318   
O42      O      0.633790000000     0.602870000000     0.566690000000    -0.495717   
O43      O      0.636510000000     0.658290000000     0.646870000000    -0.478062   
O44      O      0.652470000000     0.601200000000     0.645530000000    -0.493649   
O45      O      0.650860000000     0.660720000000     0.568000000000    -0.498999   
O46      O      0.683980000000     0.599080000000     0.611460000000    -0.477297   
O47      O      0.602540000000     0.661100000000     0.615010000000    -0.502165   
O48      O      0.685940000000     0.658940000000     0.599190000000    -0.490905   
O49      O      0.886340000000     0.857760000000     0.399800000000    -0.484131   
O50      O      0.851120000000     0.853330000000     0.369310000000    -0.49784    
O51      O      0.935540000000     0.892960000000     0.382340000000    -0.489776   
O52      O      0.932050000000     0.873030000000     0.327100000000    -0.493983   
O53      O      0.850160000000     0.910630000000     0.348980000000    -0.492835   
O54      O      0.901670000000     0.837120000000     0.335470000000    -0.500962   
O55      O      0.901100000000     0.926190000000     0.380180000000    -0.502629   
O56      O      0.881130000000     0.904200000000     0.314700000000    -0.504074   
O57      O      0.097150000000     0.124450000000     0.583220000000    -0.473137   
O58      O      0.131500000000     0.091600000000     0.579430000000    -0.4969     
O59      O      0.147370000000     0.172220000000     0.583380000000    -0.478021   
O60      O      0.134330000000     0.170420000000     0.639730000000    -0.493515   
O61      O      0.146560000000     0.087540000000     0.635730000000    -0.481615   
O62      O      0.098710000000     0.138300000000     0.638690000000    -0.488284   
O63      O      0.181640000000     0.139140000000     0.581800000000    -0.501159   
O64      O      0.181730000000     0.119700000000     0.637620000000    -0.503179   


