data_structure

_audit_creation_method RASPA-1.0
_audit_creation_date 2023-6-5
_audit_author_name 'Poobodin Mano'

_cell_length_a    55.9261
_cell_length_b    55.804
_cell_length_c    30.8796
_cell_angle_alpha 89.7884
_cell_angle_beta  90.2116
_cell_angle_gamma 89.9997
_cell_volume      96370.8

_symmetry_cell_setting          triclinic
_symmetry_space_group_name_Hall 'P 1'
_symmetry_space_group_name_H-M  'P 1'
_symmetry_Int_Tables_number     1

_symmetry_equiv_pos_as_xyz 'x,y,z'

loop_
_atom_site_label
_atom_site_type_symbol
_atom_site_fract_x
_atom_site_fract_y
_atom_site_fract_z
_atom_site_charge
C1       C      0.347720000000     0.404070000000     0.003380000000     0.409865   
C2       C      0.335780000000     0.333790000000     0.926840000000     0.410947   
C3       C      0.401700000000     0.351060000000     0.994990000000     0.414873   
C4       C      0.329850000000     0.336250000000     0.065240000000     0.41354    
C5       C      0.345170000000     0.657060000000     0.999220000000     0.412522   
C6       C      0.335320000000     0.728490000000     0.078670000000     0.411386   
C7       C      0.399400000000     0.711740000000     0.017560000000     0.411709   
C8       C      0.327910000000     0.721490000000     0.938080000000     0.411041   
C9       C      0.654180000000     0.347690000000     0.005130000000     0.408096   
C10      C      0.724550000000     0.327830000000     0.944830000000     0.411194   
C11      C      0.706410000000     0.398970000000     0.014130000000     0.413557   
C12      C      0.723390000000     0.327700000000     0.077910000000     0.410084   
C13      C      0.704650000000     0.652000000000     0.014210000000     0.414599   
C14      C      0.718630000000     0.722640000000     0.940130000000     0.413065   
C15      C      0.651630000000     0.706530000000     0.005620000000     0.410303   
C16      C      0.722280000000     0.718640000000     0.079740000000     0.411817   
C17      C      0.851420000000     0.150710000000     0.514970000000     0.409693   
C18      C      0.834760000000     0.218200000000     0.584930000000     0.408802   
C19      C      0.902000000000     0.208670000000     0.513920000000     0.418981   
C20      C      0.831570000000     0.218370000000     0.443750000000     0.419305   
C21      C      0.901130000000     0.844710000000     0.503820000000     0.414783   
C22      C      0.828900000000     0.829950000000     0.577020000000     0.411833   
C23      C      0.848990000000     0.897610000000     0.520070000000     0.409612   
C24      C      0.834530000000     0.828050000000     0.438930000000     0.410871   
C25      C      0.153440000000     0.847350000000     0.500070000000     0.411839   
C26      C      0.224080000000     0.838050000000     0.436760000000     0.411128   
C27      C      0.206340000000     0.903920000000     0.511730000000     0.4173     
C28      C      0.218030000000     0.832520000000     0.577270000000     0.418716   
C29      C      0.153540000000     0.211100000000     0.495670000000     0.409416   
C30      C      0.224370000000     0.223840000000     0.566810000000     0.411368   
C31      C      0.207600000000     0.156860000000     0.502170000000     0.413471   
C32      C      0.220230000000     0.227120000000     0.427210000000     0.415299   
C33      C      0.190990000000     0.941870000000     0.532050000000     0.0761337  
C34      C      0.192600000000     0.966820000000     0.533020000000    -0.0943563  
C35      C      0.212570000000     0.978400000000     0.515340000000     0.0507001  
C36      C      0.230700000000     0.964280000000     0.497260000000    -0.0939978  
C37      C      0.228420000000     0.939350000000     0.496550000000     0.075227   
C38      C      0.214100000000     0.005050000000     0.514810000000    -0.00636409 
C39      C      0.205350000000     0.018590000000     0.549660000000    -0.0347765  
C40      C      0.205530000000     0.043620000000     0.548080000000    -0.0346991  
C41      C      0.214650000000     0.055770000000     0.511740000000    -0.00635547 
C42      C      0.223980000000     0.042230000000     0.477380000000    -0.0347693  
C43      C      0.223630000000     0.017200000000     0.478820000000    -0.0347123  
C44      C      0.213700000000     0.082410000000     0.509080000000     0.050726   
C45      C      0.217450000000     0.096590000000     0.545890000000    -0.0939688  
C46      C      0.215500000000     0.121510000000     0.542980000000     0.0750741  
C47      C      0.206770000000     0.118860000000     0.467970000000     0.076647   
C48      C      0.208390000000     0.093920000000     0.469770000000    -0.094251   
C49      C      0.937380000000     0.849490000000     0.464690000000     0.075455   
C50      C      0.962330000000     0.848470000000     0.462630000000    -0.0940357  
C51      C      0.975540000000     0.840270000000     0.498430000000     0.0508615  
C52      C      0.963070000000     0.832860000000     0.535430000000    -0.0943186  
C53      C      0.938180000000     0.834280000000     0.536470000000     0.0765181  
C54      C      0.002150000000     0.839960000000     0.497720000000    -0.00652219 
C55      C      0.014650000000     0.833700000000     0.459930000000    -0.0346986  
C56      C      0.039660000000     0.833790000000     0.459380000000    -0.034983   
C57      C      0.052720000000     0.839960000000     0.496670000000    -0.00657929 
C58      C      0.040270000000     0.846110000000     0.534450000000    -0.0348554  
C59      C      0.015310000000     0.846190000000     0.534930000000    -0.0346361  
C60      C      0.079260000000     0.840530000000     0.496190000000     0.0511987  
C61      C      0.091590000000     0.851070000000     0.461620000000    -0.0945687  
C62      C      0.116500000000     0.852830000000     0.463090000000     0.0766747  
C63      C      0.117360000000     0.833190000000     0.531310000000     0.0760745  
C64      C      0.092470000000     0.831270000000     0.531060000000    -0.0946283  
C65      C      0.833740000000     0.115040000000     0.542390000000     0.074677   
C66      C      0.832650000000     0.090050000000     0.544950000000    -0.0939679  
C67      C      0.848610000000     0.076070000000     0.520930000000     0.050713   
C68      C      0.865230000000     0.087730000000     0.494350000000    -0.0943502  
C69      C      0.865790000000     0.112720000000     0.492500000000     0.0758228  
C70      C      0.848020000000     0.049480000000     0.523590000000    -0.00649073 
C71      C      0.826130000000     0.037090000000     0.524130000000    -0.0348588  
C72      C      0.825660000000     0.012040000000     0.525640000000    -0.0348615  
C73      C      0.847070000000     0.998830000000     0.526800000000    -0.00653923 
C74      C      0.868940000000     0.011250000000     0.526780000000    -0.0347155  
C75      C      0.869410000000     0.036270000000     0.525170000000    -0.0349045  
C76      C      0.846690000000     0.972200000000     0.526890000000     0.0508044  
C77      C      0.830680000000     0.959640000000     0.500360000000    -0.0940599  
C78      C      0.831410000000     0.934630000000     0.499070000000     0.0758618  
C79      C      0.863020000000     0.934070000000     0.550450000000     0.075422   
C80      C      0.862810000000     0.959070000000     0.552490000000    -0.0942516  
C81      C      0.940370000000     0.203690000000     0.545910000000     0.07723    
C82      C      0.965200000000     0.206260000000     0.544540000000    -0.0947397  
C83      C      0.975930000000     0.217950000000     0.509390000000     0.051303   
C84      C      0.961180000000     0.227390000000     0.476750000000    -0.094685   
C85      C      0.936410000000     0.224580000000     0.479250000000     0.0763993  
C86      C      0.002380000000     0.219390000000     0.506000000000    -0.00672675 
C87      C      0.016510000000     0.224380000000     0.542630000000    -0.034852   
C88      C      0.041460000000     0.224400000000     0.539810000000    -0.0348005  
C89      C      0.052820000000     0.219310000000     0.500360000000    -0.00662815 
C90      C      0.038670000000     0.214790000000     0.463570000000    -0.0348805  
C91      C      0.013750000000     0.214870000000     0.466340000000    -0.0346783  
C92      C      0.079290000000     0.217780000000     0.497960000000     0.0508121  
C93      C      0.093850000000     0.234520000000     0.519120000000    -0.0941983  
C94      C      0.118720000000     0.232240000000     0.517520000000     0.0755494  
C95      C      0.115130000000     0.197310000000     0.474470000000     0.0751723  
C96      C      0.090250000000     0.199110000000     0.475210000000    -0.0944203  
C97      C      0.825750000000     0.799610000000     0.630690000000     0.0759021  
C98      C      0.813940000000     0.789080000000     0.665620000000    -0.0942785  
C99      C      0.792760000000     0.799210000000     0.681280000000     0.0507858  
C100     C      0.783930000000     0.819950000000     0.661110000000    -0.0941238  
C101     C      0.796190000000     0.830000000000     0.626080000000     0.074602   
C102     C      0.780170000000     0.788170000000     0.718660000000    -0.00650126 
C103     C      0.778120000000     0.763130000000     0.721990000000    -0.0348721  
C104     C      0.767320000000     0.752610000000     0.758040000000    -0.0348087  
C105     C      0.758310000000     0.766860000000     0.791690000000    -0.00651123 
C106     C      0.759870000000     0.791930000000     0.787960000000    -0.0347394  
C107     C      0.770680000000     0.802480000000     0.751820000000    -0.0348456  
C108     C      0.747870000000     0.755490000000     0.830920000000     0.0508136  
C109     C      0.758510000000     0.735110000000     0.849300000000    -0.0943803  
C110     C      0.748530000000     0.724450000000     0.885940000000     0.0763265  
C111     C      0.717750000000     0.753670000000     0.887110000000     0.0747569  
C112     C      0.727300000000     0.764830000000     0.850420000000    -0.0939833  
C113     C      0.757790000000     0.732600000000     0.113800000000     0.0750138  
C114     C      0.769540000000     0.742960000000     0.149060000000    -0.0942742  
C115     C      0.756600000000     0.749330000000     0.186030000000     0.0509298  
C116     C      0.731980000000     0.744750000000     0.186820000000    -0.0945216  
C117     C      0.720830000000     0.734240000000     0.151110000000     0.0759791  
C118     C      0.768630000000     0.760960000000     0.223400000000    -0.00668483 
C119     C      0.790910000000     0.752660000000     0.238420000000    -0.0348154  
C120     C      0.802160000000     0.763640000000     0.273670000000    -0.0349261  
C121     C      0.791440000000     0.783260000000     0.294430000000    -0.00660314 
C122     C      0.769200000000     0.791590000000     0.279290000000    -0.0349218  
C123     C      0.757900000000     0.780520000000     0.244250000000    -0.0347655  
C124     C      0.803310000000     0.794990000000     0.331850000000     0.0507951  
C125     C      0.814040000000     0.781310000000     0.364710000000    -0.0942664  
C126     C      0.824540000000     0.792670000000     0.400260000000     0.074916   
C127     C      0.814510000000     0.830770000000     0.371160000000     0.0752535  
C128     C      0.803740000000     0.820000000000     0.335310000000    -0.09428    
C129     C      0.757030000000     0.325080000000     0.895820000000     0.075811   
C130     C      0.768470000000     0.314050000000     0.861080000000    -0.0940725  
C131     C      0.758080000000     0.294050000000     0.841130000000     0.050745   
C132     C      0.736310000000     0.285440000000     0.857320000000    -0.0938603  
C133     C      0.725430000000     0.296820000000     0.892330000000     0.0754686  
C134     C      0.769780000000     0.282420000000     0.803410000000    -0.00642247 
C135     C      0.781470000000     0.296330000000     0.771830000000    -0.0346171  
C136     C      0.792450000000     0.285470000000     0.736390000000    -0.0348697  
C137     C      0.791850000000     0.260470000000     0.731480000000    -0.00655274 
C138     C      0.780130000000     0.246530000000     0.762870000000    -0.0349074  
C139     C      0.769290000000     0.257370000000     0.798510000000    -0.0347079  
C140     C      0.803310000000     0.249020000000     0.693530000000     0.0510492  
C141     C      0.825980000000     0.256350000000     0.679630000000    -0.0943739  
C142     C      0.836360000000     0.245660000000     0.643460000000     0.0758017  
C143     C      0.802400000000     0.220700000000     0.634330000000     0.0759173  
C144     C      0.791580000000     0.230870000000     0.670580000000    -0.0943688  
C145     C      0.756750000000     0.322320000000     0.124740000000     0.0755079  
C146     C      0.767670000000     0.311210000000     0.160250000000    -0.0939348  
C147     C      0.755250000000     0.293830000000     0.184160000000     0.0505722  
C148     C      0.731990000000     0.287810000000     0.171010000000    -0.0938082  
C149     C      0.721700000000     0.299130000000     0.135080000000     0.0753663  
C150     C      0.766400000000     0.282290000000     0.222850000000    -0.00623681 
C151     C      0.781120000000     0.295610000000     0.250880000000    -0.034705   
C152     C      0.791590000000     0.284870000000     0.287200000000    -0.0346573  
C153     C      0.787460000000     0.260550000000     0.296750000000    -0.0063864  
C154     C      0.772710000000     0.247230000000     0.268790000000    -0.0346806  
C155     C      0.762370000000     0.257940000000     0.232240000000    -0.0348014  
C156     C      0.798560000000     0.249210000000     0.335670000000     0.0507516  
C157     C      0.801080000000     0.262050000000     0.374370000000    -0.0944318  
C158     C      0.812090000000     0.251400000000     0.410230000000     0.0760739  
C159     C      0.817710000000     0.215380000000     0.371110000000     0.0754187  
C160     C      0.806970000000     0.225540000000     0.334470000000    -0.0940277  
C161     C      0.707560000000     0.434990000000     0.054910000000     0.0753763  
C162     C      0.708690000000     0.459970000000     0.057080000000    -0.0941997  
C163     C      0.710400000000     0.473560000000     0.018960000000     0.0507209  
C164     C      0.711100000000     0.461490000000     0.979270000000    -0.0941827  
C165     C      0.709900000000     0.436510000000     0.978290000000     0.075663   
C166     C      0.711030000000     0.500180000000     0.020410000000    -0.0064908  
C167     C      0.696140000000     0.512840000000     0.048930000000    -0.0348751  
C168     C      0.696040000000     0.537890000000     0.049040000000    -0.0347266  
C169     C      0.710800000000     0.550860000000     0.020620000000    -0.00663653 
C170     C      0.725990000000     0.538200000000     0.992650000000    -0.0347779  
C171     C      0.726110000000     0.513160000000     0.992550000000    -0.0349038  
C172     C      0.709850000000     0.577470000000     0.019230000000     0.0509585  
C173     C      0.708140000000     0.590900000000     0.057370000000    -0.0942631  
C174     C      0.706650000000     0.615880000000     0.055170000000     0.0752791  
C175     C      0.708620000000     0.614630000000     0.978520000000     0.0767592  
C176     C      0.710200000000     0.589680000000     0.979520000000    -0.0945202  
C177     C      0.291770000000     0.733790000000     0.903870000000     0.0754725  
C178     C      0.279580000000     0.743760000000     0.868560000000    -0.0943214  
C179     C      0.292180000000     0.750410000000     0.831260000000     0.0508806  
C180     C      0.316940000000     0.746650000000     0.830340000000    -0.0943125  
C181     C      0.328550000000     0.736770000000     0.866280000000     0.0757916  
C182     C      0.279740000000     0.761640000000     0.793770000000    -0.00659616 
C183     C      0.262420000000     0.779520000000     0.800220000000    -0.0347688  
C184     C      0.251470000000     0.790820000000     0.764890000000    -0.0347435  
C185     C      0.257480000000     0.784390000000     0.722320000000    -0.00675564 
C186     C      0.274500000000     0.766230000000     0.715890000000    -0.0346765  
C187     C      0.285540000000     0.755020000000     0.751210000000    -0.0348704  
C188     C      0.246460000000     0.796930000000     0.684710000000     0.0513331  
C189     C      0.243640000000     0.821880000000     0.684820000000    -0.0946048  
C190     C      0.233970000000     0.833490000000     0.648650000000     0.0761985  
C191     C      0.229400000000     0.796340000000     0.612510000000     0.0769967  
C192     C      0.239110000000     0.784160000000     0.648040000000    -0.0949082  
C193     C      0.320290000000     0.727620000000     0.150450000000     0.075842   
C194     C      0.310390000000     0.739130000000     0.186210000000    -0.0943149  
C195     C      0.306390000000     0.763900000000     0.185000000000     0.0509268  
C196     C      0.312840000000     0.776630000000     0.147640000000    -0.0943201  
C197     C      0.322830000000     0.764560000000     0.112520000000     0.0753085  
C198     C      0.295070000000     0.776220000000     0.222240000000    -0.00662053 
C199     C      0.301720000000     0.770420000000     0.264950000000    -0.0348567  
C200     C      0.290460000000     0.781370000000     0.300010000000    -0.0347788  
C201     C      0.272200000000     0.798300000000     0.293160000000    -0.00667081 
C202     C      0.265730000000     0.804300000000     0.250440000000    -0.0348168  
C203     C      0.277080000000     0.793430000000     0.215370000000    -0.0347661  
C204     C      0.259650000000     0.809280000000     0.330470000000     0.0509275  
C205     C      0.272380000000     0.816740000000     0.367180000000    -0.0945637  
C206     C      0.260200000000     0.826530000000     0.402340000000     0.076034   
C207     C      0.223140000000     0.821760000000     0.365810000000     0.0750747  
C208     C      0.234750000000     0.812010000000     0.330010000000    -0.0942501  
C209     C      0.436530000000     0.700030000000     0.048540000000     0.0757461  
C210     C      0.461480000000     0.700620000000     0.049150000000    -0.0944141  
C211     C      0.473830000000     0.715580000000     0.020330000000     0.0507599  
C212     C      0.460530000000     0.730350000000     0.992430000000    -0.0938574  
C213     C      0.435570000000     0.729340000000     0.992770000000     0.0756154  
C214     C      0.500390000000     0.715020000000     0.018220000000    -0.00644269 
C215     C      0.512680000000     0.693100000000     0.021350000000    -0.0346691  
C216     C      0.537560000000     0.692320000000     0.018340000000    -0.0348058  
C217     C      0.550820000000     0.713430000000     0.012000000000    -0.00645435 
C218     C      0.538580000000     0.735400000000     0.009120000000    -0.034729   
C219     C      0.513640000000     0.736190000000     0.012140000000    -0.0348863  
C220     C      0.577320000000     0.712400000000     0.008550000000     0.0507042  
C221     C      0.588430000000     0.693790000000     0.985840000000    -0.0942305  
C222     C      0.613320000000     0.692360000000     0.984560000000     0.0754015  
C223     C      0.616670000000     0.727650000000     0.026680000000     0.0758295  
C224     C      0.591780000000     0.729620000000     0.028670000000    -0.0939939  
C225     C      0.223620000000     0.237680000000     0.639420000000     0.0762494  
C226     C      0.234930000000     0.248040000000     0.675140000000    -0.0942609  
C227     C      0.259150000000     0.254380000000     0.672870000000     0.0508764  
C228     C      0.271470000000     0.249990000000     0.634250000000    -0.094185   
C229     C      0.259570000000     0.239690000000     0.599100000000     0.0754916  
C230     C      0.271410000000     0.265720000000     0.710430000000    -0.00647199 
C231     C      0.266470000000     0.258160000000     0.752960000000    -0.0347065  
C232     C      0.277630000000     0.269120000000     0.788270000000    -0.0347793  
C233     C      0.294070000000     0.287870000000     0.781940000000    -0.00636148 
C234     C      0.299160000000     0.295290000000     0.739390000000    -0.0348204  
C235     C      0.287950000000     0.284370000000     0.704090000000    -0.0346433  
C236     C      0.305580000000     0.299850000000     0.819610000000     0.0506251  
C237     C      0.312850000000     0.286600000000     0.856000000000    -0.0940423  
C238     C      0.323080000000     0.298230000000     0.891500000000     0.0751298  
C239     C      0.319500000000     0.335750000000     0.855770000000     0.0755951  
C240     C      0.309130000000     0.324720000000     0.819790000000    -0.0939865  
C241     C      0.297670000000     0.336400000000     0.115380000000     0.0748267  
C242     C      0.285520000000     0.326160000000     0.150360000000    -0.0941881  
C243     C      0.294110000000     0.305000000000     0.169420000000     0.0508959  
C244     C      0.314950000000     0.294670000000     0.152780000000    -0.0945473  
C245     C      0.326660000000     0.305410000000     0.117940000000     0.0764222  
C246     C      0.281600000000     0.293730000000     0.206660000000    -0.00651799 
C247     C      0.272680000000     0.307790000000     0.240670000000    -0.0349007  
C248     C      0.261890000000     0.297000000000     0.276580000000    -0.0346823  
C249     C      0.259760000000     0.271920000000     0.279230000000    -0.00665272 
C250     C      0.268220000000     0.257940000000     0.244750000000    -0.0347597  
C251     C      0.279020000000     0.268710000000     0.208930000000    -0.0349423  
C252     C      0.249280000000     0.260290000000     0.318160000000     0.050985   
C253     C      0.229120000000     0.269920000000     0.338550000000    -0.0942378  
C254     C      0.219600000000     0.258610000000     0.375100000000     0.0749859  
C255     C      0.249550000000     0.228590000000     0.371940000000     0.0765503  
C256     C      0.259500000000     0.239400000000     0.335410000000    -0.0945588  
C257     C      0.618530000000     0.347790000000     0.963010000000     0.0754536  
C258     C      0.593610000000     0.346990000000     0.959860000000    -0.0941809  
C259     C      0.579760000000     0.344770000000     0.997370000000     0.0508255  
C260     C      0.591490000000     0.343270000000     0.037480000000    -0.0941827  
C261     C      0.616410000000     0.344170000000     0.039440000000     0.075523   
C262     C      0.553210000000     0.344360000000     0.994880000000    -0.00640323 
C263     C      0.540900000000     0.359930000000     0.966680000000    -0.0348843  
C264     C      0.515910000000     0.360170000000     0.965550000000    -0.0346958  
C265     C      0.502650000000     0.344840000000     0.992570000000    -0.00656659 
C266     C      0.514980000000     0.328980000000     0.020220000000    -0.0348342  
C267     C      0.539960000000     0.328750000000     0.021370000000    -0.0349206  
C268     C      0.476090000000     0.345860000000     0.992870000000     0.0510465  
C269     C      0.463050000000     0.348560000000     0.954300000000    -0.0942421  
C270     C      0.438110000000     0.350060000000     0.955510000000     0.0753038  
C271     C      0.438640000000     0.346160000000     0.032000000000     0.0767042  
C272     C      0.463540000000     0.344570000000     0.031980000000    -0.0945513  
C273     C      0.326980000000     0.620720000000     0.022290000000     0.0754361  
C274     C      0.325800000000     0.595700000000     0.022180000000    -0.0939769  
C275     C      0.341060000000     0.582510000000     0.995410000000     0.0509198  
C276     C      0.356750000000     0.595000000000     0.968180000000    -0.094519   
C277     C      0.357470000000     0.620000000000     0.969140000000     0.0757646  
C278     C      0.341270000000     0.555880000000     0.996940000000    -0.00646683 
C279     C      0.319870000000     0.542780000000     0.000260000000    -0.0348935  
C280     C      0.320280000000     0.517730000000     0.002370000000    -0.0347898  
C281     C      0.342120000000     0.505240000000     0.001360000000    -0.00654638 
C282     C      0.363480000000     0.518360000000     0.997920000000    -0.0347025  
C283     C      0.363070000000     0.543350000000     0.995780000000    -0.0347251  
C284     C      0.342740000000     0.478630000000     0.003610000000     0.0507659  
C285     C      0.326140000000     0.464760000000     0.980640000000    -0.0939827  
C286     C      0.327790000000     0.439770000000     0.981530000000     0.0757661  
C287     C      0.361510000000     0.441860000000     0.028150000000     0.0752679  
C288     C      0.360380000000     0.466840000000     0.027990000000    -0.0943048  
H1       H      0.175140000000     0.933650000000     0.545730000000     0.0287985  
H2       H      0.177950000000     0.976930000000     0.546700000000     0.054057   
H3       H      0.246650000000     0.972390000000     0.483850000000     0.0539105  
H4       H      0.242740000000     0.929060000000     0.482060000000     0.028684   
H5       H      0.198220000000     0.009860000000     0.578200000000     0.0383745  
H6       H      0.197980000000     0.053400000000     0.574980000000     0.0383602  
H7       H      0.231490000000     0.050960000000     0.449160000000     0.0383612  
H8       H      0.230320000000     0.007420000000     0.451180000000     0.038321   
H9       H      0.221970000000     0.088550000000     0.576830000000     0.0538348  
H10      H      0.218380000000     0.131850000000     0.572210000000     0.0283407  
H11      H      0.202420000000     0.127020000000     0.437000000000     0.0303215  
H12      H      0.204960000000     0.083750000000     0.440600000000     0.0542174  
H13      H      0.927800000000     0.856210000000     0.436560000000     0.0279354  
H14      H      0.971170000000     0.854630000000     0.433510000000     0.0538262  
H15      H      0.972450000000     0.825930000000     0.563550000000     0.0542552  
H16      H      0.929260000000     0.828550000000     0.565870000000     0.0305153  
H17      H      0.005120000000     0.828480000000     0.430870000000     0.0383251  
H18      H      0.048790000000     0.828750000000     0.429910000000     0.0387508  
H19      H      0.049830000000     0.851370000000     0.563470000000     0.0389919  
H20      H      0.006340000000     0.851590000000     0.564330000000     0.0386423  
H21      H      0.082030000000     0.858570000000     0.434180000000     0.0544701  
H22      H      0.125390000000     0.861540000000     0.436130000000     0.0298777  
H23      H      0.126930000000     0.826040000000     0.559100000000     0.0292062  
H24      H      0.083630000000     0.822670000000     0.558120000000     0.0544926  
H25      H      0.821240000000     0.125260000000     0.561730000000     0.0299409  
H26      H      0.819660000000     0.081790000000     0.566210000000     0.0541259  
H27      H      0.877640000000     0.077630000000     0.474700000000     0.0543285  
H28      H      0.878940000000     0.121060000000     0.471590000000     0.0293237  
H29      H      0.809340000000     0.046720000000     0.522620000000     0.0386265  
H30      H      0.808520000000     0.003020000000     0.526020000000     0.0386115  
H31      H      0.885760000000     0.001630000000     0.527180000000     0.0386485  
H32      H      0.886560000000     0.045270000000     0.525330000000     0.0386532  
H33      H      0.818070000000     0.969050000000     0.479740000000     0.0544854  
H34      H      0.819000000000     0.925590000000     0.477580000000     0.0310051  
H35      H      0.875930000000     0.924570000000     0.570410000000     0.0286731  
H36      H      0.875250000000     0.968040000000     0.573970000000     0.0541208  
H37      H      0.932770000000     0.194160000000     0.573260000000     0.0289673  
H38      H      0.975930000000     0.198490000000     0.570270000000     0.0544603  
H39      H      0.968730000000     0.236850000000     0.449330000000     0.0544053  
H40      H      0.925610000000     0.231910000000     0.453140000000     0.0286166  
H41      H      0.008280000000     0.228160000000     0.573550000000     0.0386672  
H42      H      0.051860000000     0.227780000000     0.568810000000     0.0387294  
H43      H      0.046890000000     0.211050000000     0.432610000000     0.0386836  
H44      H      0.003390000000     0.210750000000     0.437610000000     0.0387639  
H45      H      0.086100000000     0.249370000000     0.536680000000     0.0543715  
H46      H      0.129420000000     0.245480000000     0.534410000000     0.0300388  
H47      H      0.122900000000     0.182440000000     0.456920000000     0.0293209  
H48      H      0.079680000000     0.185620000000     0.458840000000     0.0543398  
H49      H      0.842130000000     0.791250000000     0.619700000000     0.0307668  
H50      H      0.821600000000     0.773260000000     0.680640000000     0.0544457  
H51      H      0.767510000000     0.828230000000     0.671940000000     0.0540139  
H52      H      0.788800000000     0.846010000000     0.611180000000     0.0280893  
H53      H      0.784830000000     0.751620000000     0.696610000000     0.0387182  
H54      H      0.765970000000     0.733260000000     0.759470000000     0.0387113  
H55      H      0.753330000000     0.803410000000     0.813520000000     0.0385841  
H56      H      0.772190000000     0.821810000000     0.750440000000     0.0387023  
H57      H      0.774660000000     0.727520000000     0.835770000000     0.054369   
H58      H      0.757320000000     0.708700000000     0.899120000000     0.0303947  
H59      H      0.701730000000     0.761290000000     0.901140000000     0.0282105  
H60      H      0.718390000000     0.780440000000     0.837060000000     0.0539438  
H61      H      0.768350000000     0.728130000000     0.085580000000     0.0287434  
H62      H      0.788570000000     0.746390000000     0.147000000000     0.0542751  
H63      H      0.721380000000     0.749110000000     0.215000000000     0.0545441  
H64      H      0.701740000000     0.731020000000     0.152930000000     0.0302209  
H65      H      0.799540000000     0.737500000000     0.223230000000     0.0387259  
H66      H      0.819370000000     0.756940000000     0.284390000000     0.0387316  
H67      H      0.760380000000     0.806510000000     0.294860000000     0.0388234  
H68      H      0.740850000000     0.787480000000     0.233170000000     0.038761   
H69      H      0.813920000000     0.761910000000     0.363460000000     0.0542121  
H70      H      0.832440000000     0.781480000000     0.425290000000     0.0284964  
H71      H      0.814430000000     0.850180000000     0.372700000000     0.0306325  
H72      H      0.795940000000     0.831250000000     0.310330000000     0.0545076  
H73      H      0.765630000000     0.340540000000     0.910260000000     0.0298005  
H74      H      0.785480000000     0.321090000000     0.850240000000     0.0540748  
H75      H      0.727430000000     0.270240000000     0.842620000000     0.0539823  
H76      H      0.708530000000     0.289720000000     0.903720000000     0.0293372  
H77      H      0.781830000000     0.315690000000     0.774060000000     0.0386586  
H78      H      0.801040000000     0.296720000000     0.712380000000     0.0389606  
H79      H      0.779630000000     0.227180000000     0.760200000000     0.0387992  
H80      H      0.760800000000     0.246060000000     0.822520000000     0.0383427  
H81      H      0.835760000000     0.270150000000     0.696790000000     0.0544161  
H82      H      0.853920000000     0.251820000000     0.633680000000     0.0294871  
H83      H      0.792670000000     0.206840000000     0.617150000000     0.0303403  
H84      H      0.773940000000     0.224840000000     0.680070000000     0.0544425  
H85      H      0.766930000000     0.335720000000     0.107220000000     0.0293322  
H86      H      0.785830000000     0.316150000000     0.168600000000     0.0540479  
H87      H      0.721550000000     0.274750000000     0.188770000000     0.0540874  
H88      H      0.703620000000     0.294100000000     0.126130000000     0.0300666  
H89      H      0.784380000000     0.314470000000     0.245090000000     0.038608   
H90      H      0.803110000000     0.295630000000     0.307580000000     0.0385552  
H91      H      0.768890000000     0.228540000000     0.275330000000     0.0382093  
H92      H      0.751380000000     0.247030000000     0.211150000000     0.0382817  
H93      H      0.794450000000     0.280200000000     0.377190000000     0.0541044  
H94      H      0.813780000000     0.262000000000     0.439470000000     0.028388   
H95      H      0.824150000000     0.197100000000     0.368800000000     0.028441   
H96      H      0.805720000000     0.215000000000     0.305170000000     0.0539341  
H97      H      0.706200000000     0.425100000000     0.085100000000     0.0288958  
H98      H      0.708400000000     0.468540000000     0.088490000000     0.0540939  
H99      H      0.712090000000     0.471280000000     0.948970000000     0.0541508  
H100     H      0.710300000000     0.427870000000     0.946910000000     0.0294719  
H101     H      0.684080000000     0.503400000000     0.070390000000     0.0385473  
H102     H      0.683900000000     0.547090000000     0.070580000000     0.0385968  
H103     H      0.737880000000     0.547650000000     0.970880000000     0.0386374  
H104     H      0.738090000000     0.503970000000     0.970730000000     0.0387459  
H105     H      0.708090000000     0.582200000000     0.088780000000     0.0540287  
H106     H      0.705280000000     0.625660000000     0.085340000000     0.0281909  
H107     H      0.708740000000     0.623380000000     0.947090000000     0.0302349  
H108     H      0.711190000000     0.580020000000     0.949220000000     0.0543977  
H109     H      0.281430000000     0.728940000000     0.932220000000     0.0284886  
H110     H      0.260380000000     0.746120000000     0.870400000000     0.054201   
H111     H      0.327400000000     0.751780000000     0.802350000000     0.0546374  
H112     H      0.347770000000     0.734390000000     0.864440000000     0.0306762  
H113     H      0.257700000000     0.785160000000     0.832610000000     0.0387884  
H114     H      0.238250000000     0.804590000000     0.770890000000     0.0387012  
H115     H      0.279680000000     0.761000000000     0.683500000000     0.0386584  
H116     H      0.298650000000     0.741140000000     0.745190000000     0.0386526  
H117     H      0.249340000000     0.832470000000     0.712320000000     0.0544524  
H118     H      0.232290000000     0.852840000000     0.649790000000     0.0286001  
H119     H      0.223970000000     0.785830000000     0.584690000000     0.0288495  
H120     H      0.240720000000     0.764830000000     0.646830000000     0.0544721  
H121     H      0.322860000000     0.708380000000     0.152480000000     0.0305818  
H122     H      0.305420000000     0.728560000000     0.214260000000     0.0546069  
H123     H      0.310300000000     0.795850000000     0.145590000000     0.054166   
H124     H      0.327520000000     0.774990000000     0.084100000000     0.0284951  
H125     H      0.315680000000     0.757400000000     0.271290000000     0.0386373  
H126     H      0.295720000000     0.776210000000     0.332520000000     0.0386761  
H127     H      0.251890000000     0.817450000000     0.244100000000     0.038619   
H128     H      0.271400000000     0.798140000000     0.182860000000     0.0387502  
H129     H      0.291670000000     0.815200000000     0.368660000000     0.0543688  
H130     H      0.270670000000     0.832080000000     0.430180000000     0.0293317  
H131     H      0.203830000000     0.823400000000     0.364370000000     0.0296486  
H132     H      0.224200000000     0.806220000000     0.302480000000     0.0543229  
H133     H      0.427650000000     0.687920000000     0.070840000000     0.0286648  
H134     H      0.471010000000     0.689270000000     0.071900000000     0.0541199  
H135     H      0.469310000000     0.742070000000     0.969420000000     0.0544089  
H136     H      0.425920000000     0.740640000000     0.970040000000     0.0304505  
H137     H      0.503040000000     0.676420000000     0.025460000000     0.0386736  
H138     H      0.546420000000     0.675140000000     0.021310000000     0.0385936  
H139     H      0.548250000000     0.751980000000     0.003920000000     0.038514   
H140     H      0.504750000000     0.753390000000     0.009950000000     0.0384674  
H141     H      0.577960000000     0.680350000000     0.969080000000     0.0541624  
H142     H      0.621210000000     0.677540000000     0.967040000000     0.0290293  
H143     H      0.627260000000     0.741100000000     0.043240000000     0.0302646  
H144     H      0.583970000000     0.744210000000     0.046830000000     0.0542476  
H145     H      0.204840000000     0.233160000000     0.642390000000     0.0301351  
H146     H      0.224600000000     0.251400000000     0.704070000000     0.0542862  
H147     H      0.290280000000     0.254260000000     0.631220000000     0.0541318  
H148     H      0.269720000000     0.236600000000     0.569790000000     0.0289157  
H149     H      0.254050000000     0.243650000000     0.759030000000     0.0385013  
H150     H      0.273070000000     0.263120000000     0.820590000000     0.0384423  
H151     H      0.311930000000     0.309480000000     0.733290000000     0.0385651  
H152     H      0.291990000000     0.290840000000     0.671820000000     0.0384476  
H153     H      0.310820000000     0.267300000000     0.857040000000     0.0539726  
H154     H      0.328390000000     0.287360000000     0.919090000000     0.0287765  
H155     H      0.321750000000     0.355040000000     0.854790000000     0.0303601  
H156     H      0.303520000000     0.335730000000     0.792650000000     0.0542535  
H157     H      0.290450000000     0.352710000000     0.101330000000     0.0281094  
H158     H      0.269350000000     0.334610000000     0.161990000000     0.054019   
H159     H      0.322420000000     0.278520000000     0.166940000000     0.054433   
H160     H      0.342780000000     0.296870000000     0.106130000000     0.0303989  
H161     H      0.274620000000     0.327090000000     0.240100000000     0.0387125  
H162     H      0.255800000000     0.308270000000     0.302800000000     0.0385788  
H163     H      0.266430000000     0.238610000000     0.245350000000     0.0385694  
H164     H      0.285280000000     0.257400000000     0.182890000000     0.0386805  
H165     H      0.220520000000     0.285910000000     0.326060000000     0.0539986  
H166     H      0.203930000000     0.266500000000     0.389900000000     0.0281285  
H167     H      0.258030000000     0.212460000000     0.384290000000     0.0298602  
H168     H      0.275330000000     0.231550000000     0.321140000000     0.0543218  
H169     H      0.628640000000     0.349530000000     0.933260000000     0.0296215  
H170     H      0.585300000000     0.347920000000     0.928170000000     0.0542383  
H171     H      0.581480000000     0.341850000000     0.067340000000     0.0542589  
H172     H      0.624800000000     0.343130000000     0.071110000000     0.0301881  
H173     H      0.550560000000     0.372400000000     0.946270000000     0.0385771  
H174     H      0.506980000000     0.372830000000     0.944310000000     0.0385618  
H175     H      0.505320000000     0.316650000000     0.040900000000     0.0386916  
H176     H      0.548890000000     0.316240000000     0.042890000000     0.0388283  
H177     H      0.472020000000     0.349350000000     0.923300000000     0.0540121  
H178     H      0.428630000000     0.352190000000     0.925040000000     0.0280829  
H179     H      0.429630000000     0.345290000000     0.063000000000     0.0303487  
H180     H      0.472890000000     0.342820000000     0.062610000000     0.0544335  
H181     H      0.315240000000     0.630290000000     0.044090000000     0.0302693  
H182     H      0.313510000000     0.586790000000     0.043960000000     0.0544192  
H183     H      0.368530000000     0.585550000000     0.946350000000     0.0541923  
H184     H      0.370100000000     0.628980000000     0.948040000000     0.0286845  
H185     H      0.302770000000     0.551870000000     0.000900000000     0.038518   
H186     H      0.303510000000     0.508170000000     0.005320000000     0.0385886  
H187     H      0.380590000000     0.509310000000     0.996490000000     0.0385889  
H188     H      0.379910000000     0.552870000000     0.993800000000     0.0387056  
H189     H      0.312320000000     0.473130000000     0.961120000000     0.0543467  
H190     H      0.314860000000     0.429660000000     0.962770000000     0.0304833  
H191     H      0.375580000000     0.433430000000     0.047070000000     0.0290469  
H192     H      0.373310000000     0.476830000000     0.046890000000     0.0541718  
In1      In     0.353580000000     0.356080000000     0.997700000000     2.40433    
In2      In     0.351740000000     0.704850000000     0.008450000000     2.41152    
In3      In     0.702350000000     0.350640000000     0.010530000000     2.41159    
In4      In     0.699540000000     0.700190000000     0.009830000000     2.40304    
In5      In     0.854610000000     0.199160000000     0.513230000000     2.4023     
In6      In     0.853130000000     0.849690000000     0.509910000000     2.40406    
In7      In     0.200910000000     0.855690000000     0.506580000000     2.40509    
In8      In     0.201560000000     0.204950000000     0.497550000000     2.40259    
N1       N      0.208650000000     0.928300000000     0.513590000000    -0.196997   
N2       N      0.210060000000     0.132490000000     0.504370000000    -0.195776   
N3       N      0.925480000000     0.842730000000     0.501530000000    -0.195858   
N4       N      0.129200000000     0.844260000000     0.497950000000    -0.194972   
N5       N      0.850250000000     0.126230000000     0.516520000000    -0.195173   
N6       N      0.847670000000     0.922020000000     0.523490000000    -0.194821   
N7       N      0.926170000000     0.212490000000     0.513220000000    -0.196162   
N8       N      0.129210000000     0.213640000000     0.495710000000    -0.195226   
N9       N      0.816930000000     0.819890000000     0.611130000000    -0.195872   
N10      N      0.728270000000     0.733610000000     0.904550000000    -0.195921   
N11      N      0.733620000000     0.728390000000     0.114830000000    -0.195674   
N12      N      0.824640000000     0.817180000000     0.403480000000    -0.19579    
N13      N      0.735660000000     0.316560000000     0.911170000000    -0.195498   
N14      N      0.824560000000     0.228110000000     0.620870000000    -0.194439   
N15      N      0.733930000000     0.316360000000     0.112400000000    -0.195241   
N16      N      0.820410000000     0.228310000000     0.408500000000    -0.19751    
N17      N      0.708030000000     0.423420000000     0.015800000000    -0.19625    
N18      N      0.706730000000     0.627580000000     0.016020000000    -0.195849   
N19      N      0.316070000000     0.730540000000     0.902790000000    -0.195601   
N20      N      0.227030000000     0.820810000000     0.612760000000    -0.196461   
N21      N      0.326300000000     0.740220000000     0.113850000000    -0.195538   
N22      N      0.235780000000     0.828860000000     0.401690000000    -0.195376   
N23      N      0.423740000000     0.713930000000     0.019980000000    -0.195592   
N24      N      0.627290000000     0.708970000000     0.005320000000    -0.195219   
N25      N      0.235840000000     0.233660000000     0.601710000000    -0.195134   
N26      N      0.326240000000     0.322600000000     0.891400000000    -0.195449   
N27      N      0.318060000000     0.326070000000     0.099410000000    -0.196163   
N28      N      0.229750000000     0.238100000000     0.391540000000    -0.19634    
N29      N      0.629780000000     0.346490000000     0.002510000000    -0.194833   
N30      N      0.426070000000     0.349010000000     0.994100000000    -0.19596    
N31      N      0.343010000000     0.632690000000     0.996550000000    -0.195839   
N32      N      0.345540000000     0.428480000000     0.004630000000    -0.195055   
O1       O      0.322780000000     0.355140000000     0.046550000000    -0.506211   
O2       O      0.348760000000     0.327490000000     0.049790000000    -0.497143   
O3       O      0.339200000000     0.356130000000     0.928350000000    -0.493155   
O4       O      0.333840000000     0.390880000000     0.981620000000    -0.48949    
O5       O      0.389930000000     0.350580000000     0.029770000000    -0.496069   
O6       O      0.364260000000     0.392950000000     0.022850000000    -0.505298   
O7       O      0.341570000000     0.322660000000     0.960960000000    -0.505238   
O8       O      0.389150000000     0.353980000000     0.961270000000    -0.506052   
O9       O      0.317400000000     0.715370000000     0.972530000000    -0.50543    
O10      O      0.350340000000     0.718980000000     0.939140000000    -0.496251   
O11      O      0.338000000000     0.706030000000     0.077810000000    -0.496996   
O12      O      0.332820000000     0.669600000000     0.024700000000    -0.494441   
O13      O      0.386790000000     0.723600000000     0.991100000000    -0.493642   
O14      O      0.360430000000     0.668740000000     0.977780000000    -0.507951   
O15      O      0.341170000000     0.739120000000     0.044110000000    -0.506065   
O16      O      0.387830000000     0.696840000000     0.040100000000    -0.507258   
O17      O      0.702730000000     0.322420000000     0.064330000000    -0.496934   
O18      O      0.733430000000     0.344490000000     0.057350000000    -0.503207   
O19      O      0.705130000000     0.320480000000     0.960900000000    -0.501677   
O20      O      0.667350000000     0.349920000000     0.972200000000    -0.498803   
O21      O      0.704400000000     0.386040000000     0.047540000000    -0.504602   
O22      O      0.665370000000     0.346830000000     0.040720000000    -0.496333   
O23      O      0.732750000000     0.346610000000     0.962070000000    -0.500413   
O24      O      0.706510000000     0.387500000000     0.979000000000    -0.502383   
O25      O      0.733010000000     0.713540000000     0.045070000000    -0.504962   
O26      O      0.700140000000     0.714250000000     0.079170000000    -0.494414   
O27      O      0.727600000000     0.704050000000     0.956960000000    -0.496838   
O28      O      0.704170000000     0.663470000000     0.978920000000    -0.495535   
O29      O      0.665370000000     0.721050000000     0.024740000000    -0.48993    
O30      O      0.702660000000     0.664880000000     0.047560000000    -0.505346   
O31      O      0.699980000000     0.730100000000     0.958650000000    -0.505311   
O32      O      0.662160000000     0.689100000000     0.987970000000    -0.505169   
O33      O      0.835630000000     0.229910000000     0.478000000000    -0.508701   
O34      O      0.839000000000     0.197040000000     0.444520000000    -0.506239   
O35      O      0.824290000000     0.202650000000     0.562030000000    -0.490346   
O36      O      0.837830000000     0.164050000000     0.536810000000    -0.491189   
O37      O      0.888160000000     0.216020000000     0.484280000000    -0.506607   
O38      O      0.866420000000     0.161830000000     0.492010000000    -0.500529   
O39      O      0.855310000000     0.224050000000     0.571680000000    -0.498393   
O40      O      0.891810000000     0.196840000000     0.543550000000    -0.500098   
O41      O      0.843450000000     0.816470000000     0.470220000000    -0.506612   
O42      O      0.835170000000     0.850500000000     0.443340000000    -0.493288   
O43      O      0.848150000000     0.821420000000     0.562570000000    -0.495638   
O44      O      0.889600000000     0.839930000000     0.537830000000    -0.496182   
O45      O      0.835790000000     0.885760000000     0.494690000000    -0.489036   
O46      O      0.888400000000     0.851950000000     0.472520000000    -0.506711   
O47      O      0.821700000000     0.848520000000     0.557490000000    -0.506204   
O48      O      0.864010000000     0.885180000000     0.540990000000    -0.50418    
O49      O      0.211260000000     0.821700000000     0.543520000000    -0.502049   
O50      O      0.216010000000     0.855050000000     0.575410000000    -0.507462   
O51      O      0.201610000000     0.840090000000     0.438240000000    -0.497285   
O52      O      0.165060000000     0.858580000000     0.471390000000    -0.491248   
O53      O      0.221390000000     0.890570000000     0.493360000000    -0.502839   
O54      O      0.165910000000     0.839990000000     0.531640000000    -0.501498   
O55      O      0.234840000000     0.844980000000     0.470460000000    -0.49913    
O56      O      0.188740000000     0.892920000000     0.527680000000    -0.506063   
O57      O      0.202070000000     0.235000000000     0.446720000000    -0.50705    
O58      O      0.228910000000     0.208190000000     0.443300000000    -0.500146   
O59      O      0.202640000000     0.217680000000     0.567680000000    -0.492885   
O60      O      0.167450000000     0.225540000000     0.514580000000    -0.490082   
O61      O      0.203050000000     0.167780000000     0.467240000000    -0.493786   
O62      O      0.163920000000     0.193800000000     0.477390000000    -0.503868   
O63      O      0.234630000000     0.220310000000     0.530990000000    -0.504269   
O64      O      0.209240000000     0.170230000000     0.534940000000    -0.504525   


