data_structure

_audit_creation_method RASPA-1.0
_audit_creation_date 2023-5-22
_audit_author_name 'Poobodin Mano'

_cell_length_a    50.5244
_cell_length_b    51.1457
_cell_length_c    24.799
_cell_angle_alpha 90.0002
_cell_angle_beta  89.6078
_cell_angle_gamma 120
_cell_volume      55496

_symmetry_cell_setting          triclinic
_symmetry_space_group_name_Hall 'P 1'
_symmetry_space_group_name_H-M  'P 1'
_symmetry_Int_Tables_number     1

_symmetry_equiv_pos_as_xyz 'x,y,z'

loop_
_atom_site_label
_atom_site_type_symbol
_atom_site_fract_x
_atom_site_fract_y
_atom_site_fract_z
_atom_site_charge
C1       C      0.343630000000     0.291800000000     0.260690000000     0.353607   
C2       C      0.417650000000     0.292560000000     0.341330000000     0.348353   
C3       C      0.324430000000     0.217160000000     0.383200000000     0.352113   
C4       C      0.357940000000     0.212560000000     0.233380000000     0.350496   
C5       C      0.272510000000     0.424330000000     0.091270000000     0.35648    
C6       C      0.281700000000     0.349940000000     0.169180000000     0.354476   
C7       C      0.206180000000     0.366230000000     0.211380000000     0.350643   
C8       C      0.207860000000     0.328760000000     0.052060000000     0.352266   
C9       C      0.412250000000     0.130320000000     0.927770000000     0.351386   
C10      C      0.330640000000     0.047300000000     0.013120000000     0.348703   
C11      C      0.354960000000     0.134180000000     0.063300000000     0.35142    
C12      C      0.323900000000     0.105730000000     0.888760000000     0.348615   
C13      C      0.034330000000     0.189820000000     0.837180000000     0.356492   
C14      C      0.113970000000     0.184220000000     0.760350000000     0.355024   
C15      C      0.092350000000     0.255720000000     0.721300000000     0.350937   
C16      C      0.130520000000     0.252300000000     0.881530000000     0.353508   
C17      C      0.174990000000     0.123430000000     0.673550000000     0.350511   
C18      C      0.180630000000     0.046630000000     0.592150000000     0.359312   
C19      C      0.247440000000     0.140070000000     0.555150000000     0.349944   
C20      C      0.246950000000     0.104030000000     0.716180000000     0.354273   
C21      C      0.121130000000     0.425730000000     0.506070000000     0.352691   
C22      C      0.039490000000     0.351130000000     0.427510000000     0.352781   
C23      C      0.130130000000     0.366900000000     0.385740000000     0.351515   
C24      C      0.094550000000     0.332480000000     0.548250000000     0.356098   
C25      C      0.133200000000     0.996680000000     0.576520000000    -0.00398055 
C26      C      0.164830000000     0.015860000000     0.569480000000    -0.0794525  
C27      C      0.181680000000     0.005290000000     0.540840000000    -0.00311076 
C28      C      0.167330000000     0.476080000000     0.520170000000    -0.0054338  
C29      C      0.135770000000     0.456800000000     0.527320000000    -0.0753585  
C30      C      0.118750000000     0.467390000000     0.555390000000    -0.00640823 
C31      C      0.134640000000     0.168690000000     0.682730000000    -0.00459039 
C32      C      0.127410000000     0.166640000000     0.737940000000    -0.0785545  
C33      C      0.134400000000     0.148790000000     0.771450000000    -0.00459645 
C34      C      0.149090000000     0.133930000000     0.750320000000    -0.00597784 
C35      C      0.157150000000     0.136800000000     0.695390000000    -0.0759259  
C36      C      0.149400000000     0.153990000000     0.661720000000    -0.00616427 
C37      C      0.072970000000     0.262970000000     0.633130000000    -0.005931   
C38      C      0.092640000000     0.275370000000     0.677310000000    -0.0735326  
C39      C      0.112860000000     0.306670000000     0.678770000000    -0.00656953 
C40      C      0.113460000000     0.325210000000     0.636820000000    -0.004254   
C41      C      0.093860000000     0.312820000000     0.592560000000    -0.078036   
C42      C      0.073580000000     0.281520000000     0.591140000000    -0.00379726 
C43      C      0.459300000000     0.176550000000     0.895710000000    -0.00565687 
C44      C      0.443160000000     0.145120000000     0.903300000000    -0.0759696  
C45      C      0.956990000000     0.128260000000     0.887960000000    -0.00560388 
C46      C      0.986560000000     0.142670000000     0.865920000000    -0.00531293 
C47      C      0.002760000000     0.174170000000     0.858870000000    -0.0763532  
C48      C      0.988760000000     0.190910000000     0.873750000000    -0.00463993 
C49      C      0.300750000000     0.130530000000     0.835010000000    -0.00594044 
C50      C      0.304920000000     0.105690000000     0.843720000000    -0.0736748  
C51      C      0.290090000000     0.080430000000     0.809950000000    -0.00577891 
C52      C      0.271150000000     0.079870000000     0.768630000000    -0.00474937 
C53      C      0.266930000000     0.104690000000     0.759960000000    -0.0753025  
C54      C      0.282050000000     0.130100000000     0.793310000000    -0.00388526 
C55      C      0.181680000000     0.390660000000     0.262670000000    -0.00596356 
C56      C      0.186430000000     0.366050000000     0.255750000000    -0.0743077  
C57      C      0.172350000000     0.341530000000     0.291740000000    -0.00487074 
C58      C      0.154000000000     0.341730000000     0.334080000000    -0.005894   
C59      C      0.149300000000     0.366380000000     0.340980000000    -0.074305   
C60      C      0.163250000000     0.390790000000     0.304760000000    -0.00451147 
C61      C      0.271040000000     0.966210000000     0.042440000000    -0.00354337 
C62      C      0.287870000000     0.455730000000     0.070920000000    -0.0769079  
C63      C      0.319080000000     0.475600000000     0.080230000000    -0.00481796 
C64      C      0.333160000000     0.005430000000     0.061390000000    -0.00645706 
C65      C      0.316210000000     0.015880000000     0.033170000000    -0.0748529  
C66      C      0.285030000000     0.995950000000     0.023880000000    -0.00616028 
C67      C      0.157780000000     0.286830000000     0.019390000000    -0.00579623 
C68      C      0.188470000000     0.308390000000     0.008870000000    -0.0760155  
C69      C      0.200240000000     0.310770000000     0.956450000000    -0.00513598 
C70      C      0.181530000000     0.292250000000     0.915170000000    -0.00489224 
C71      C      0.150710000000     0.271000000000     0.925530000000    -0.0763161  
C72      C      0.139090000000     0.268320000000     0.978130000000    -0.00517594 
C73      C      0.317250000000     0.188810000000     0.469180000000    -0.00472638 
C74      C      0.304690000000     0.197390000000     0.427060000000    -0.0760162  
C75      C      0.273190000000     0.187080000000     0.427470000000    -0.00473526 
C76      C      0.254540000000     0.168360000000     0.469060000000    -0.00552497 
C77      C      0.267130000000     0.159930000000     0.511330000000    -0.0745196  
C78      C      0.298670000000     0.170400000000     0.511110000000    -0.00579137 
C79      C      0.453540000000     0.315120000000     0.418680000000    -0.00623313 
C80      C      0.448880000000     0.310630000000     0.362850000000    -0.0742694  
C81      C      0.474380000000     0.321630000000     0.328240000000    -0.00625343 
C82      C      0.003920000000     0.335770000000     0.349220000000    -0.00476157 
C83      C      0.008520000000     0.339120000000     0.405200000000    -0.0771757  
C84      C      0.983090000000     0.329210000000     0.439660000000    -0.00455734 
C85      C      0.326120000000     0.308720000000     0.180770000000    -0.00515772 
C86      C      0.330950000000     0.309600000000     0.236630000000    -0.0773061  
C87      C      0.321550000000     0.325860000000     0.269560000000    -0.00519747 
C88      C      0.306570000000     0.340010000000     0.247300000000    -0.0047194  
C89      C      0.300540000000     0.337990000000     0.191750000000    -0.0776552  
C90      C      0.310970000000     0.322700000000     0.158570000000    -0.00519239 
C91      C      0.329940000000     0.174060000000     0.162160000000    -0.00533123 
C92      C      0.356560000000     0.190910000000     0.192520000000    -0.0755028  
C93      C      0.382160000000     0.187720000000     0.181970000000    -0.00565168 
C94      C      0.381400000000     0.168620000000     0.140890000000    -0.00513819 
C95      C      0.355050000000     0.152440000000     0.109540000000    -0.0763982  
C96      C      0.329200000000     0.155050000000     0.121040000000    -0.00512058 
C97      C      0.343630000000     0.791800000000     0.260690000000     0.353616   
C98      C      0.417650000000     0.792560000000     0.341330000000     0.348371   
C99      C      0.324430000000     0.717160000000     0.383200000000     0.352502   
C100     C      0.357940000000     0.712560000000     0.233380000000     0.350882   
C101     C      0.272510000000     0.924330000000     0.091270000000     0.356491   
C102     C      0.281700000000     0.849940000000     0.169180000000     0.354473   
C103     C      0.206180000000     0.866230000000     0.211380000000     0.351081   
C104     C      0.207860000000     0.828760000000     0.052060000000     0.352308   
C105     C      0.412250000000     0.630320000000     0.927770000000     0.351403   
C106     C      0.330640000000     0.547300000000     0.013120000000     0.348779   
C107     C      0.354960000000     0.634180000000     0.063300000000     0.35141    
C108     C      0.323900000000     0.605730000000     0.888760000000     0.348607   
C109     C      0.034330000000     0.689820000000     0.837180000000     0.356463   
C110     C      0.113970000000     0.684220000000     0.760350000000     0.355053   
C111     C      0.092350000000     0.755720000000     0.721300000000     0.350855   
C112     C      0.130530000000     0.752300000000     0.881530000000     0.353456   
C113     C      0.174990000000     0.623420000000     0.673550000000     0.350583   
C114     C      0.180630000000     0.546630000000     0.592150000000     0.35929    
C115     C      0.247440000000     0.640070000000     0.555150000000     0.349933   
C116     C      0.246950000000     0.604030000000     0.716180000000     0.354247   
C117     C      0.121130000000     0.925730000000     0.506070000000     0.352177   
C118     C      0.039490000000     0.851130000000     0.427510000000     0.352771   
C119     C      0.130130000000     0.866900000000     0.385740000000     0.351485   
C120     C      0.094550000000     0.832480000000     0.548250000000     0.355866   
C121     C      0.133200000000     0.496680000000     0.576520000000    -0.00409178 
C122     C      0.164830000000     0.515860000000     0.569480000000    -0.0793817  
C123     C      0.181680000000     0.505290000000     0.540840000000    -0.00313792 
C124     C      0.167330000000     0.976080000000     0.520170000000    -0.00549839 
C125     C      0.135770000000     0.956800000000     0.527320000000    -0.0751343  
C126     C      0.118750000000     0.967400000000     0.555390000000    -0.00654295 
C127     C      0.134640000000     0.668690000000     0.682730000000    -0.0045701  
C128     C      0.127410000000     0.666640000000     0.737940000000    -0.0785674  
C129     C      0.134400000000     0.648790000000     0.771450000000    -0.00457149 
C130     C      0.149090000000     0.633930000000     0.750320000000    -0.00602375 
C131     C      0.157150000000     0.636800000000     0.695390000000    -0.0758318  
C132     C      0.149400000000     0.653990000000     0.661720000000    -0.00620154 
C133     C      0.072970000000     0.762970000000     0.633130000000    -0.00588487 
C134     C      0.092640000000     0.775360000000     0.677310000000    -0.0735631  
C135     C      0.112870000000     0.806670000000     0.678770000000    -0.00659506 
C136     C      0.113450000000     0.825210000000     0.636820000000    -0.00427945 
C137     C      0.093860000000     0.812810000000     0.592560000000    -0.0778872  
C138     C      0.073580000000     0.781520000000     0.591140000000    -0.00385291 
C139     C      0.459300000000     0.676550000000     0.895710000000    -0.00557161 
C140     C      0.443160000000     0.645120000000     0.903300000000    -0.0760144  
C141     C      0.956990000000     0.628260000000     0.887960000000    -0.00558041 
C142     C      0.986560000000     0.642670000000     0.865920000000    -0.00533689 
C143     C      0.002760000000     0.674170000000     0.858870000000    -0.076297   
C144     C      0.988760000000     0.690920000000     0.873750000000    -0.00474583 
C145     C      0.300750000000     0.630530000000     0.835010000000    -0.00593223 
C146     C      0.304920000000     0.605690000000     0.843720000000    -0.0736514  
C147     C      0.290090000000     0.580430000000     0.809950000000    -0.00584457 
C148     C      0.271150000000     0.579870000000     0.768630000000    -0.00470347 
C149     C      0.266930000000     0.604680000000     0.759960000000    -0.0752715  
C150     C      0.282050000000     0.630100000000     0.793310000000    -0.00392359 
C151     C      0.181680000000     0.890660000000     0.262670000000    -0.00587202 
C152     C      0.186430000000     0.866050000000     0.255750000000    -0.0745007  
C153     C      0.172350000000     0.841530000000     0.291740000000    -0.00474707 
C154     C      0.153990000000     0.841720000000     0.334080000000    -0.00600338 
C155     C      0.149300000000     0.866380000000     0.340980000000    -0.0742473  
C156     C      0.163250000000     0.890790000000     0.304760000000    -0.00454814 
C157     C      0.271040000000     0.466210000000     0.042440000000    -0.00356238 
C158     C      0.287870000000     0.955730000000     0.070920000000    -0.0769288  
C159     C      0.319080000000     0.975600000000     0.080230000000    -0.00477521 
C160     C      0.333160000000     0.505430000000     0.061390000000    -0.00639222 
C161     C      0.316210000000     0.515890000000     0.033170000000    -0.0749395  
C162     C      0.285030000000     0.495950000000     0.023880000000    -0.00614228 
C163     C      0.157780000000     0.786830000000     0.019390000000    -0.00578498 
C164     C      0.188470000000     0.808400000000     0.008870000000    -0.0760583  
C165     C      0.200240000000     0.810770000000     0.956450000000    -0.00511721 
C166     C      0.181530000000     0.792250000000     0.915170000000    -0.00489314 
C167     C      0.150710000000     0.771000000000     0.925530000000    -0.0763499  
C168     C      0.139090000000     0.768320000000     0.978130000000    -0.00516259 
C169     C      0.317250000000     0.688810000000     0.469180000000    -0.00464705 
C170     C      0.304690000000     0.697390000000     0.427060000000    -0.0761854  
C171     C      0.273190000000     0.687080000000     0.427470000000    -0.00465331 
C172     C      0.254540000000     0.668360000000     0.469060000000    -0.00556717 
C173     C      0.267130000000     0.659930000000     0.511330000000    -0.0744873  
C174     C      0.298670000000     0.670400000000     0.511110000000    -0.00583274 
C175     C      0.453540000000     0.815120000000     0.418680000000    -0.00619676 
C176     C      0.448880000000     0.810630000000     0.362850000000    -0.0743023  
C177     C      0.474380000000     0.821630000000     0.328240000000    -0.00620406 
C178     C      0.003920000000     0.835760000000     0.349220000000    -0.00477334 
C179     C      0.008520000000     0.839120000000     0.405200000000    -0.0771759  
C180     C      0.983090000000     0.829210000000     0.439660000000    -0.00455574 
C181     C      0.326120000000     0.808720000000     0.180770000000    -0.00515616 
C182     C      0.330950000000     0.809600000000     0.236630000000    -0.0773084  
C183     C      0.321550000000     0.825860000000     0.269560000000    -0.00519618 
C184     C      0.306570000000     0.840010000000     0.247300000000    -0.00472097 
C185     C      0.300540000000     0.837990000000     0.191750000000    -0.0776534  
C186     C      0.310970000000     0.822700000000     0.158570000000    -0.00519357 
C187     C      0.329940000000     0.674060000000     0.162160000000    -0.00525218 
C188     C      0.356560000000     0.690910000000     0.192520000000    -0.0756702  
C189     C      0.382160000000     0.687720000000     0.181970000000    -0.00557049 
C190     C      0.381400000000     0.668620000000     0.140890000000    -0.00517995 
C191     C      0.355050000000     0.652440000000     0.109540000000    -0.0763659  
C192     C      0.329200000000     0.655050000000     0.121040000000    -0.00516118 
C193     C      0.843630000000     0.291800000000     0.260690000000     0.353606   
C194     C      0.917650000000     0.292560000000     0.341330000000     0.348345   
C195     C      0.824430000000     0.217160000000     0.383200000000     0.352113   
C196     C      0.857930000000     0.212560000000     0.233380000000     0.35052    
C197     C      0.772510000000     0.424330000000     0.091270000000     0.356102   
C198     C      0.781700000000     0.349940000000     0.169180000000     0.35447    
C199     C      0.706180000000     0.366230000000     0.211380000000     0.350643   
C200     C      0.707860000000     0.328760000000     0.052060000000     0.352265   
C201     C      0.912250000000     0.130320000000     0.927770000000     0.351463   
C202     C      0.830640000000     0.047300000000     0.013120000000     0.348709   
C203     C      0.854960000000     0.134180000000     0.063300000000     0.35144    
C204     C      0.823900000000     0.105730000000     0.888760000000     0.348615   
C205     C      0.534320000000     0.189820000000     0.837180000000     0.356614   
C206     C      0.613970000000     0.184220000000     0.760350000000     0.355022   
C207     C      0.592350000000     0.255720000000     0.721300000000     0.35094    
C208     C      0.630520000000     0.252300000000     0.881530000000     0.353508   
C209     C      0.674990000000     0.123430000000     0.673550000000     0.350509   
C210     C      0.680630000000     0.046630000000     0.592150000000     0.3593     
C211     C      0.747440000000     0.140070000000     0.555150000000     0.349944   
C212     C      0.746950000000     0.104030000000     0.716180000000     0.354272   
C213     C      0.621130000000     0.425730000000     0.506070000000     0.352676   
C214     C      0.539490000000     0.351130000000     0.427510000000     0.352974   
C215     C      0.630130000000     0.366900000000     0.385740000000     0.351522   
C216     C      0.594550000000     0.332480000000     0.548250000000     0.356096   
C217     C      0.633200000000     0.996680000000     0.576520000000    -0.00402479 
C218     C      0.664830000000     0.015860000000     0.569480000000    -0.0794255  
C219     C      0.681680000000     0.005290000000     0.540840000000    -0.00316044 
C220     C      0.667340000000     0.476080000000     0.520170000000    -0.00553386 
C221     C      0.635770000000     0.456800000000     0.527320000000    -0.0753143  
C222     C      0.618750000000     0.467390000000     0.555390000000    -0.00643823 
C223     C      0.634640000000     0.168690000000     0.682730000000    -0.00459386 
C224     C      0.627410000000     0.166640000000     0.737940000000    -0.078563   
C225     C      0.634400000000     0.148790000000     0.771450000000    -0.00460031 
C226     C      0.649090000000     0.133930000000     0.750320000000    -0.00598297 
C227     C      0.657150000000     0.136800000000     0.695390000000    -0.0759302  
C228     C      0.649400000000     0.153990000000     0.661720000000    -0.00616893 
C229     C      0.572970000000     0.262970000000     0.633130000000    -0.00592342 
C230     C      0.592640000000     0.275370000000     0.677310000000    -0.0735482  
C231     C      0.612860000000     0.306670000000     0.678770000000    -0.00656692 
C232     C      0.613460000000     0.325210000000     0.636820000000    -0.00426485 
C233     C      0.593860000000     0.312820000000     0.592560000000    -0.0780294  
C234     C      0.573580000000     0.281520000000     0.591140000000    -0.00383406 
C235     C      0.959300000000     0.176550000000     0.895710000000    -0.00533306 
C236     C      0.943160000000     0.145120000000     0.903300000000    -0.0762111  
C237     C      0.456990000000     0.128260000000     0.887960000000    -0.00585223 
C238     C      0.486560000000     0.142670000000     0.865920000000    -0.00478627 
C239     C      0.502760000000     0.174170000000     0.858870000000    -0.0771136  
C240     C      0.488760000000     0.190910000000     0.873750000000    -0.00388523 
C241     C      0.800750000000     0.130530000000     0.835010000000    -0.00594319 
C242     C      0.804920000000     0.105690000000     0.843720000000    -0.0736801  
C243     C      0.790090000000     0.080430000000     0.809950000000    -0.00578137 
C244     C      0.771150000000     0.079870000000     0.768630000000    -0.0047527  
C245     C      0.766930000000     0.104690000000     0.759960000000    -0.0753058  
C246     C      0.782050000000     0.130100000000     0.793310000000    -0.00388891 
C247     C      0.681680000000     0.390660000000     0.262670000000    -0.00597177 
C248     C      0.686430000000     0.366050000000     0.255750000000    -0.0743246  
C249     C      0.672340000000     0.341530000000     0.291740000000    -0.00483938 
C250     C      0.654000000000     0.341730000000     0.334080000000    -0.0059103  
C251     C      0.649300000000     0.366380000000     0.340980000000    -0.074319   
C252     C      0.663250000000     0.390790000000     0.304760000000    -0.00448891 
C253     C      0.771040000000     0.966210000000     0.042440000000    -0.0035596  
C254     C      0.787870000000     0.455730000000     0.070920000000    -0.0767709  
C255     C      0.819080000000     0.475600000000     0.080230000000    -0.00484374 
C256     C      0.833160000000     0.005430000000     0.061390000000    -0.00648911 
C257     C      0.816200000000     0.015880000000     0.033170000000    -0.0748693  
C258     C      0.785030000000     0.995950000000     0.023880000000    -0.00612055 
C259     C      0.657780000000     0.286830000000     0.019390000000    -0.00580005 
C260     C      0.688470000000     0.308390000000     0.008870000000    -0.0760193  
C261     C      0.700240000000     0.310770000000     0.956450000000    -0.00513807 
C262     C      0.681530000000     0.292250000000     0.915170000000    -0.00489371 
C263     C      0.650710000000     0.271000000000     0.925530000000    -0.0763215  
C264     C      0.639090000000     0.268320000000     0.978130000000    -0.00517923 
C265     C      0.817250000000     0.188810000000     0.469180000000    -0.00472924 
C266     C      0.804690000000     0.197390000000     0.427060000000    -0.0760207  
C267     C      0.773190000000     0.187080000000     0.427470000000    -0.00473653 
C268     C      0.754540000000     0.168360000000     0.469060000000    -0.00552663 
C269     C      0.767130000000     0.159930000000     0.511330000000    -0.0745228  
C270     C      0.798670000000     0.170400000000     0.511110000000    -0.00579512 
C271     C      0.953540000000     0.315120000000     0.418680000000    -0.00617641 
C272     C      0.948880000000     0.310630000000     0.362850000000    -0.0742839  
C273     C      0.974380000000     0.321630000000     0.328240000000    -0.00643557 
C274     C      0.503920000000     0.335770000000     0.349220000000    -0.0048633  
C275     C      0.508530000000     0.339120000000     0.405200000000    -0.0775136  
C276     C      0.483090000000     0.329210000000     0.439660000000    -0.00426181 
C277     C      0.826120000000     0.308720000000     0.180770000000    -0.00516126 
C278     C      0.830950000000     0.309600000000     0.236630000000    -0.0773135  
C279     C      0.821550000000     0.325860000000     0.269560000000    -0.00520078 
C280     C      0.806570000000     0.340010000000     0.247300000000    -0.00472462 
C281     C      0.800540000000     0.337990000000     0.191750000000    -0.0776588  
C282     C      0.810970000000     0.322700000000     0.158570000000    -0.00519783 
C283     C      0.829940000000     0.174060000000     0.162160000000    -0.00541731 
C284     C      0.856560000000     0.190910000000     0.192520000000    -0.0754472  
C285     C      0.882160000000     0.187720000000     0.181970000000    -0.00568732 
C286     C      0.881400000000     0.168620000000     0.140890000000    -0.00511479 
C287     C      0.855050000000     0.152440000000     0.109540000000    -0.076462   
C288     C      0.829210000000     0.155050000000     0.121040000000    -0.00501264 
C289     C      0.843630000000     0.791800000000     0.260690000000     0.35361    
C290     C      0.917650000000     0.792560000000     0.341330000000     0.34835    
C291     C      0.824430000000     0.717160000000     0.383200000000     0.352498   
C292     C      0.857940000000     0.712560000000     0.233380000000     0.350498   
C293     C      0.772510000000     0.924330000000     0.091270000000     0.356499   
C294     C      0.781700000000     0.849940000000     0.169180000000     0.354472   
C295     C      0.706180000000     0.866230000000     0.211380000000     0.351148   
C296     C      0.707860000000     0.828760000000     0.052060000000     0.352313   
C297     C      0.912250000000     0.630320000000     0.927770000000     0.351473   
C298     C      0.830640000000     0.547300000000     0.013120000000     0.348785   
C299     C      0.854960000000     0.634180000000     0.063300000000     0.35142    
C300     C      0.823900000000     0.605730000000     0.888760000000     0.34861    
C301     C      0.534330000000     0.689820000000     0.837180000000     0.356662   
C302     C      0.613970000000     0.684220000000     0.760350000000     0.355051   
C303     C      0.592350000000     0.755720000000     0.721300000000     0.350866   
C304     C      0.630530000000     0.752300000000     0.881530000000     0.353456   
C305     C      0.674990000000     0.623420000000     0.673550000000     0.350582   
C306     C      0.680630000000     0.546630000000     0.592150000000     0.359303   
C307     C      0.747440000000     0.640070000000     0.555150000000     0.349939   
C308     C      0.746950000000     0.604030000000     0.716180000000     0.354107   
C309     C      0.621130000000     0.925730000000     0.506070000000     0.352604   
C310     C      0.539490000000     0.851130000000     0.427510000000     0.352807   
C311     C      0.630130000000     0.866900000000     0.385740000000     0.351478   
C312     C      0.594550000000     0.832480000000     0.548250000000     0.355857   
C313     C      0.633200000000     0.496680000000     0.576520000000    -0.00407465 
C314     C      0.664830000000     0.515860000000     0.569480000000    -0.0794132  
C315     C      0.681680000000     0.505290000000     0.540840000000    -0.00308266 
C316     C      0.667330000000     0.976080000000     0.520170000000    -0.00540881 
C317     C      0.635770000000     0.956800000000     0.527320000000    -0.0753218  
C318     C      0.618750000000     0.967400000000     0.555390000000    -0.00646416 
C319     C      0.634640000000     0.668690000000     0.682730000000    -0.00457488 
C320     C      0.627410000000     0.666640000000     0.737940000000    -0.0785704  
C321     C      0.634400000000     0.648790000000     0.771450000000    -0.00457741 
C322     C      0.649090000000     0.633930000000     0.750320000000    -0.00602917 
C323     C      0.657150000000     0.636800000000     0.695390000000    -0.0758334  
C324     C      0.649400000000     0.653990000000     0.661720000000    -0.00620561 
C325     C      0.572970000000     0.762970000000     0.633130000000    -0.00587313 
C326     C      0.592640000000     0.775360000000     0.677310000000    -0.0736028  
C327     C      0.612860000000     0.806670000000     0.678770000000    -0.00653568 
C328     C      0.613460000000     0.825210000000     0.636820000000    -0.00434113 
C329     C      0.593860000000     0.812810000000     0.592560000000    -0.0778685  
C330     C      0.573580000000     0.781520000000     0.591140000000    -0.00387795 
C331     C      0.959300000000     0.676550000000     0.895710000000    -0.00527007 
C332     C      0.943160000000     0.645120000000     0.903300000000    -0.0762375  
C333     C      0.456990000000     0.628260000000     0.887960000000    -0.00580348 
C334     C      0.486560000000     0.642670000000     0.865920000000    -0.00486223 
C335     C      0.502760000000     0.674170000000     0.858870000000    -0.0769542  
C336     C      0.488760000000     0.690920000000     0.873750000000    -0.00403605 
C337     C      0.800750000000     0.630530000000     0.835010000000    -0.00592127 
C338     C      0.804920000000     0.605690000000     0.843720000000    -0.0736662  
C339     C      0.790090000000     0.580430000000     0.809950000000    -0.00583474 
C340     C      0.771150000000     0.579870000000     0.768630000000    -0.00473003 
C341     C      0.766930000000     0.604680000000     0.759960000000    -0.075225   
C342     C      0.782050000000     0.630100000000     0.793310000000    -0.00395456 
C343     C      0.681680000000     0.890660000000     0.262670000000    -0.00586095 
C344     C      0.686430000000     0.866050000000     0.255750000000    -0.0745501  
C345     C      0.672350000000     0.841530000000     0.291740000000    -0.00471503 
C346     C      0.654000000000     0.841720000000     0.334080000000    -0.00604267 
C347     C      0.649300000000     0.866380000000     0.340980000000    -0.0742349  
C348     C      0.663250000000     0.890790000000     0.304760000000    -0.00456088 
C349     C      0.771040000000     0.466210000000     0.042440000000    -0.00363224 
C350     C      0.787870000000     0.955730000000     0.070920000000    -0.0769312  
C351     C      0.819080000000     0.975600000000     0.080230000000    -0.00476572 
C352     C      0.833160000000     0.505430000000     0.061390000000    -0.00638392 
C353     C      0.816210000000     0.515890000000     0.033170000000    -0.0749623  
C354     C      0.785030000000     0.495950000000     0.023880000000    -0.00611246 
C355     C      0.657780000000     0.786830000000     0.019390000000    -0.00578856 
C356     C      0.688470000000     0.808400000000     0.008870000000    -0.0760637  
C357     C      0.700240000000     0.810770000000     0.956450000000    -0.0051185  
C358     C      0.681530000000     0.792250000000     0.915170000000    -0.00489482 
C359     C      0.650710000000     0.771000000000     0.925530000000    -0.0763554  
C360     C      0.639090000000     0.768320000000     0.978130000000    -0.00516629 
C361     C      0.817250000000     0.688810000000     0.469180000000    -0.00465087 
C362     C      0.804690000000     0.697390000000     0.427060000000    -0.0761887  
C363     C      0.773190000000     0.687080000000     0.427470000000    -0.00465562 
C364     C      0.754540000000     0.668360000000     0.469060000000    -0.0055673  
C365     C      0.767130000000     0.659930000000     0.511330000000    -0.0744928  
C366     C      0.798670000000     0.670400000000     0.511110000000    -0.00583498 
C367     C      0.953540000000     0.815120000000     0.418680000000    -0.00617452 
C368     C      0.948880000000     0.810630000000     0.362850000000    -0.074287   
C369     C      0.974380000000     0.821630000000     0.328240000000    -0.006426   
C370     C      0.503920000000     0.835760000000     0.349220000000    -0.00495892 
C371     C      0.508520000000     0.839120000000     0.405200000000    -0.0773499  
C372     C      0.483090000000     0.829210000000     0.439660000000    -0.00432467 
C373     C      0.826120000000     0.808720000000     0.180770000000    -0.00516045 
C374     C      0.830950000000     0.809600000000     0.236630000000    -0.0773147  
C375     C      0.821550000000     0.825860000000     0.269560000000    -0.00519993 
C376     C      0.806570000000     0.840010000000     0.247300000000    -0.00472516 
C377     C      0.800540000000     0.837990000000     0.191750000000    -0.0776574  
C378     C      0.810970000000     0.822700000000     0.158570000000    -0.00519809 
C379     C      0.829940000000     0.674060000000     0.162160000000    -0.00533243 
C380     C      0.856560000000     0.690910000000     0.192520000000    -0.0755097  
C381     C      0.882160000000     0.687720000000     0.181970000000    -0.00565762 
C382     C      0.881400000000     0.668620000000     0.140890000000    -0.00514472 
C383     C      0.855050000000     0.652440000000     0.109540000000    -0.0764034  
C384     C      0.829200000000     0.655050000000     0.121040000000    -0.0051225  
H1       H      0.119660000000     0.004270000000     0.598380000000     0.0483181  
H2       H      0.206090000000     0.019520000000     0.534760000000     0.0505988  
H3       H      0.181060000000     0.468590000000     0.498610000000     0.0516281  
H4       H      0.094370000000     0.452980000000     0.561520000000     0.0495289  
H5       H      0.129490000000     0.182220000000     0.655840000000     0.0505718  
H6       H      0.129040000000     0.146750000000     0.814150000000     0.0492823  
H7       H      0.154800000000     0.120830000000     0.777240000000     0.0497993  
H8       H      0.155240000000     0.156570000000     0.619180000000     0.0512587  
H9       H      0.057150000000     0.238910000000     0.630880000000     0.0511364  
H10      H      0.128310000000     0.316870000000     0.712280000000     0.0512391  
H11      H      0.129310000000     0.349270000000     0.639060000000     0.0498834  
H12      H      0.058180000000     0.271330000000     0.557570000000     0.0501834  
H13      H      0.449240000000     0.190170000000     0.907060000000     0.0509744  
H14      H      0.445070000000     0.103980000000     0.893320000000     0.0503677  
H15      H      0.996800000000     0.129190000000     0.854810000000     0.049603   
H16      H      0.000640000000     0.215220000000     0.868790000000     0.0509993  
H17      H      0.311900000000     0.150310000000     0.860440000000     0.0512401  
H18      H      0.292810000000     0.060910000000     0.815840000000     0.0509811  
H19      H      0.259880000000     0.060020000000     0.743410000000     0.0503144  
H20      H      0.279230000000     0.149560000000     0.787510000000     0.0502471  
H21      H      0.192210000000     0.409870000000     0.235550000000     0.050959   
H22      H      0.175630000000     0.322260000000     0.287390000000     0.0507891  
H23      H      0.143500000000     0.322590000000     0.361380000000     0.0502135  
H24      H      0.160070000000     0.410120000000     0.309060000000     0.0515487  
H25      H      0.246940000000     0.951460000000     0.034680000000     0.0512429  
H26      H      0.332600000000     0.468130000000     0.102110000000     0.0490584  
H27      H      0.357250000000     0.020310000000     0.069090000000     0.0501197  
H28      H      0.271360000000     0.003300000000     0.002160000000     0.0517169  
H29      H      0.148070000000     0.284450000000     0.059400000000     0.0505816  
H30      H      0.223820000000     0.327170000000     0.947150000000     0.0506911  
H31      H      0.191130000000     0.294820000000     0.875020000000     0.0505684  
H32      H      0.115430000000     0.252140000000     0.987360000000     0.0504437  
H33      H      0.341490000000     0.196510000000     0.469970000000     0.0506784  
H34      H      0.262900000000     0.193330000000     0.395470000000     0.0501914  
H35      H      0.230290000000     0.160630000000     0.468250000000     0.0512973  
H36      H      0.308970000000     0.164180000000     0.543110000000     0.0503354  
H37      H      0.434320000000     0.306920000000     0.446350000000     0.0513353  
H38      H      0.471490000000     0.318540000000     0.285030000000     0.0510694  
H39      H      0.023110000000     0.343270000000     0.321640000000     0.0502695  
H40      H      0.985950000000     0.331580000000     0.482970000000     0.0502867  
H41      H      0.333130000000     0.296380000000     0.154360000000     0.0505415  
H42      H      0.325030000000     0.326980000000     0.312740000000     0.0499876  
H43      H      0.298830000000     0.351680000000     0.273870000000     0.0501432  
H44      H      0.306740000000     0.320860000000     0.115590000000     0.0500056  
H45      H      0.309830000000     0.176000000000     0.169440000000     0.0508329  
H46      H      0.402980000000     0.200380000000     0.204810000000     0.0508954  
H47      H      0.401670000000     0.167050000000     0.132940000000     0.0501568  
H48      H      0.308550000000     0.142810000000     0.097610000000     0.0511968  
H49      H      0.119660000000     0.504270000000     0.598380000000     0.0483623  
H50      H      0.206090000000     0.519520000000     0.534760000000     0.0506127  
H51      H      0.181060000000     0.968580000000     0.498610000000     0.0516514  
H52      H      0.094370000000     0.952980000000     0.561520000000     0.0495743  
H53      H      0.129490000000     0.682220000000     0.655840000000     0.0505676  
H54      H      0.129040000000     0.646750000000     0.814150000000     0.0492795  
H55      H      0.154800000000     0.620830000000     0.777240000000     0.0498151  
H56      H      0.155240000000     0.656570000000     0.619180000000     0.0512723  
H57      H      0.057150000000     0.738910000000     0.630880000000     0.0511296  
H58      H      0.128310000000     0.816870000000     0.712280000000     0.0512501  
H59      H      0.129320000000     0.849270000000     0.639060000000     0.0498823  
H60      H      0.058180000000     0.771330000000     0.557570000000     0.0502024  
H61      H      0.449240000000     0.690170000000     0.907060000000     0.0509547  
H62      H      0.445070000000     0.603980000000     0.893320000000     0.0503598  
H63      H      0.996800000000     0.629190000000     0.854810000000     0.0496129  
H64      H      0.000640000000     0.715220000000     0.868790000000     0.0510359  
H65      H      0.311900000000     0.650310000000     0.860440000000     0.0512387  
H66      H      0.292810000000     0.560920000000     0.815840000000     0.0510116  
H67      H      0.259880000000     0.560020000000     0.743410000000     0.0503088  
H68      H      0.279230000000     0.649560000000     0.787510000000     0.0502562  
H69      H      0.192200000000     0.909870000000     0.235550000000     0.0509255  
H70      H      0.175630000000     0.822260000000     0.287390000000     0.0507568  
H71      H      0.143500000000     0.822590000000     0.361380000000     0.0502482  
H72      H      0.160060000000     0.910120000000     0.309060000000     0.0515558  
H73      H      0.246940000000     0.451460000000     0.034680000000     0.0512471  
H74      H      0.332600000000     0.968130000000     0.102110000000     0.0490487  
H75      H      0.357250000000     0.520310000000     0.069090000000     0.0501141  
H76      H      0.271360000000     0.503300000000     0.002160000000     0.0517321  
H77      H      0.148070000000     0.784450000000     0.059400000000     0.0505819  
H78      H      0.223820000000     0.827170000000     0.947150000000     0.0506874  
H79      H      0.191130000000     0.794820000000     0.875020000000     0.0505644  
H80      H      0.115430000000     0.752140000000     0.987360000000     0.05044    
H81      H      0.341490000000     0.696510000000     0.469970000000     0.0506555  
H82      H      0.262900000000     0.693330000000     0.395470000000     0.0501664  
H83      H      0.230290000000     0.660630000000     0.468250000000     0.0513093  
H84      H      0.308970000000     0.664180000000     0.543110000000     0.0503466  
H85      H      0.434320000000     0.806920000000     0.446350000000     0.0513255  
H86      H      0.471490000000     0.818540000000     0.285030000000     0.0510567  
H87      H      0.023110000000     0.843270000000     0.321640000000     0.0502719  
H88      H      0.985950000000     0.831580000000     0.482970000000     0.0502849  
H89      H      0.333130000000     0.796380000000     0.154360000000     0.0505415  
H90      H      0.325030000000     0.826980000000     0.312740000000     0.0499869  
H91      H      0.298830000000     0.851680000000     0.273870000000     0.0501433  
H92      H      0.306740000000     0.820860000000     0.115590000000     0.0500064  
H93      H      0.309830000000     0.676000000000     0.169440000000     0.0508116  
H94      H      0.402980000000     0.700380000000     0.204810000000     0.0508697  
H95      H      0.401670000000     0.667050000000     0.132940000000     0.0501682  
H96      H      0.308550000000     0.642810000000     0.097610000000     0.0512092  
H97      H      0.619660000000     0.004270000000     0.598380000000     0.0483152  
H98      H      0.706090000000     0.019520000000     0.534760000000     0.0506063  
H99      H      0.681060000000     0.468590000000     0.498610000000     0.0516574  
H100     H      0.594370000000     0.452980000000     0.561520000000     0.0495193  
H101     H      0.629490000000     0.182220000000     0.655840000000     0.0505642  
H102     H      0.629040000000     0.146750000000     0.814150000000     0.0492719  
H103     H      0.654800000000     0.120830000000     0.777240000000     0.0497925  
H104     H      0.655240000000     0.156570000000     0.619180000000     0.0512529  
H105     H      0.557150000000     0.238910000000     0.630880000000     0.0511133  
H106     H      0.628310000000     0.316870000000     0.712280000000     0.0512326  
H107     H      0.629310000000     0.349270000000     0.639060000000     0.0498805  
H108     H      0.558190000000     0.271330000000     0.557570000000     0.0501754  
H109     H      0.949240000000     0.190170000000     0.907060000000     0.050853   
H110     H      0.945070000000     0.103980000000     0.893320000000     0.0502794  
H111     H      0.496800000000     0.129190000000     0.854810000000     0.0495481  
H112     H      0.500640000000     0.215220000000     0.868790000000     0.050695   
H113     H      0.811900000000     0.150310000000     0.860440000000     0.0512326  
H114     H      0.792810000000     0.060910000000     0.815840000000     0.0509755  
H115     H      0.759880000000     0.060020000000     0.743410000000     0.0503098  
H116     H      0.779230000000     0.149560000000     0.787510000000     0.0502417  
H117     H      0.692210000000     0.409870000000     0.235550000000     0.0509576  
H118     H      0.675630000000     0.322260000000     0.287390000000     0.0507709  
H119     H      0.643500000000     0.322590000000     0.361380000000     0.0502093  
H120     H      0.660060000000     0.410120000000     0.309060000000     0.0515368  
H121     H      0.746940000000     0.951460000000     0.034680000000     0.0512428  
H122     H      0.832610000000     0.468130000000     0.102110000000     0.0490463  
H123     H      0.857250000000     0.020310000000     0.069090000000     0.0501114  
H124     H      0.771360000000     0.003300000000     0.002160000000     0.0517025  
H125     H      0.648070000000     0.284450000000     0.059400000000     0.0505723  
H126     H      0.723820000000     0.327170000000     0.947150000000     0.0506855  
H127     H      0.691130000000     0.294820000000     0.875020000000     0.0505646  
H128     H      0.615430000000     0.252140000000     0.987360000000     0.0504295  
H129     H      0.841490000000     0.196510000000     0.469970000000     0.0506658  
H130     H      0.762900000000     0.193330000000     0.395470000000     0.0501883  
H131     H      0.730290000000     0.160630000000     0.468250000000     0.0512932  
H132     H      0.808970000000     0.164180000000     0.543110000000     0.0503263  
H133     H      0.934320000000     0.306920000000     0.446350000000     0.051297   
H134     H      0.971490000000     0.318540000000     0.285030000000     0.0510607  
H135     H      0.523110000000     0.343270000000     0.321640000000     0.0502556  
H136     H      0.485950000000     0.331580000000     0.482970000000     0.0502831  
H137     H      0.833130000000     0.296380000000     0.154360000000     0.0505325  
H138     H      0.825030000000     0.326980000000     0.312740000000     0.0499792  
H139     H      0.798830000000     0.351680000000     0.273870000000     0.0501372  
H140     H      0.806740000000     0.320860000000     0.115590000000     0.0499985  
H141     H      0.809830000000     0.176000000000     0.169440000000     0.0508488  
H142     H      0.902980000000     0.200380000000     0.204810000000     0.0508841  
H143     H      0.901670000000     0.167050000000     0.132940000000     0.0501284  
H144     H      0.808550000000     0.142810000000     0.097610000000     0.0511574  
H145     H      0.619660000000     0.504270000000     0.598380000000     0.048345   
H146     H      0.706090000000     0.519520000000     0.534760000000     0.0505947  
H147     H      0.681060000000     0.968580000000     0.498610000000     0.051622   
H148     H      0.594370000000     0.952980000000     0.561520000000     0.0495334  
H149     H      0.629490000000     0.682220000000     0.655840000000     0.0505607  
H150     H      0.629050000000     0.646750000000     0.814150000000     0.0492657  
H151     H      0.654800000000     0.620830000000     0.777240000000     0.0498103  
H152     H      0.655240000000     0.656570000000     0.619180000000     0.0512668  
H153     H      0.557150000000     0.738910000000     0.630880000000     0.0511059  
H154     H      0.628310000000     0.816870000000     0.712280000000     0.0512256  
H155     H      0.629320000000     0.849270000000     0.639060000000     0.0498938  
H156     H      0.558180000000     0.771330000000     0.557570000000     0.0501868  
H157     H      0.949240000000     0.690170000000     0.907060000000     0.0508395  
H158     H      0.945070000000     0.603980000000     0.893320000000     0.0502777  
H159     H      0.496800000000     0.629190000000     0.854810000000     0.0495727  
H160     H      0.500640000000     0.715220000000     0.868790000000     0.0507477  
H161     H      0.811900000000     0.650310000000     0.860440000000     0.0512283  
H162     H      0.792810000000     0.560920000000     0.815840000000     0.0510031  
H163     H      0.759880000000     0.560020000000     0.743410000000     0.050311   
H164     H      0.779230000000     0.649560000000     0.787510000000     0.0502576  
H165     H      0.692210000000     0.909870000000     0.235550000000     0.0509184  
H166     H      0.675630000000     0.822260000000     0.287390000000     0.0507421  
H167     H      0.643500000000     0.822590000000     0.361380000000     0.0502517  
H168     H      0.660060000000     0.910120000000     0.309060000000     0.0515542  
H169     H      0.746940000000     0.451460000000     0.034680000000     0.0512652  
H170     H      0.832600000000     0.968130000000     0.102110000000     0.0490356  
H171     H      0.857250000000     0.520310000000     0.069090000000     0.050096   
H172     H      0.771360000000     0.503300000000     0.002160000000     0.0517212  
H173     H      0.648070000000     0.784450000000     0.059400000000     0.0505716  
H174     H      0.723820000000     0.827170000000     0.947150000000     0.0506828  
H175     H      0.691130000000     0.794820000000     0.875020000000     0.0505611  
H176     H      0.615430000000     0.752140000000     0.987360000000     0.0504252  
H177     H      0.841490000000     0.696510000000     0.469970000000     0.0506434  
H178     H      0.762900000000     0.693330000000     0.395470000000     0.0501632  
H179     H      0.730290000000     0.660630000000     0.468250000000     0.0513049  
H180     H      0.808970000000     0.664180000000     0.543110000000     0.0503362  
H181     H      0.934320000000     0.806920000000     0.446350000000     0.051297   
H182     H      0.971490000000     0.818540000000     0.285030000000     0.0510596  
H183     H      0.523110000000     0.843270000000     0.321640000000     0.0502779  
H184     H      0.485950000000     0.831580000000     0.482970000000     0.0502996  
H185     H      0.833130000000     0.796380000000     0.154360000000     0.0505327  
H186     H      0.825030000000     0.826980000000     0.312740000000     0.0499794  
H187     H      0.798830000000     0.851680000000     0.273870000000     0.0501389  
H188     H      0.806740000000     0.820860000000     0.115590000000     0.0499996  
H189     H      0.809830000000     0.676000000000     0.169440000000     0.0508313  
H190     H      0.902980000000     0.700380000000     0.204810000000     0.0508749  
H191     H      0.901670000000     0.667050000000     0.132940000000     0.0501375  
H192     H      0.808550000000     0.642810000000     0.097610000000     0.0511958  
In1      In     0.361040000000     0.254230000000     0.304230000000     2.40062    
In2      In     0.242810000000     0.367260000000     0.130440000000     2.3923     
In3      In     0.356070000000     0.104260000000     0.974060000000     2.40054    
In4      In     0.092710000000     0.219620000000     0.800530000000     2.3941     
In5      In     0.211340000000     0.102820000000     0.634480000000     2.39713    
In6      In     0.095640000000     0.368800000000     0.467690000000     2.39438    
In7      In     0.361040000000     0.754230000000     0.304230000000     2.40106    
In8      In     0.242810000000     0.867260000000     0.130440000000     2.39229    
In9      In     0.356070000000     0.604260000000     0.974060000000     2.40055    
In10     In     0.092710000000     0.719610000000     0.800530000000     2.39394    
In11     In     0.211340000000     0.602820000000     0.634480000000     2.39711    
In12     In     0.095640000000     0.868800000000     0.467690000000     2.39379    
In13     In     0.861040000000     0.254230000000     0.304230000000     2.4006     
In14     In     0.742810000000     0.367260000000     0.130440000000     2.39215    
In15     In     0.856070000000     0.104260000000     0.974060000000     2.40054    
In16     In     0.592710000000     0.219620000000     0.800530000000     2.3941     
In17     In     0.711340000000     0.102820000000     0.634480000000     2.39712    
In18     In     0.595640000000     0.368800000000     0.467690000000     2.39461    
In19     In     0.861040000000     0.754230000000     0.304230000000     2.40083    
In20     In     0.742810000000     0.867260000000     0.130440000000     2.39247    
In21     In     0.856070000000     0.604260000000     0.974060000000     2.40054    
In22     In     0.592710000000     0.719610000000     0.800530000000     2.39394    
In23     In     0.711340000000     0.602820000000     0.634480000000     2.39721    
In24     In     0.595640000000     0.868800000000     0.467690000000     2.39392    
O1       O      0.381810000000     0.229530000000     0.259470000000    -0.478376   
O2       O      0.335640000000     0.216440000000     0.243370000000    -0.484768   
O3       O      0.412400000000     0.285590000000     0.292190000000    -0.480883   
O4       O      0.344520000000     0.288440000000     0.310870000000    -0.485517   
O5       O      0.351810000000     0.223530000000     0.377060000000    -0.484097   
O6       O      0.352220000000     0.276840000000     0.232620000000    -0.488643   
O7       O      0.394270000000     0.280860000000     0.371350000000    -0.482676   
O8       O      0.315390000000     0.229300000000     0.349290000000    -0.482266   
O9       O      0.235330000000     0.348860000000     0.044400000000    -0.479614   
O10      O      0.198070000000     0.327910000000     0.099290000000    -0.4838     
O11      O      0.272340000000     0.364350000000     0.197040000000    -0.484303   
O12      O      0.285670000000     0.413930000000     0.120030000000    -0.485052   
O13      O      0.209930000000     0.344100000000     0.201280000000    -0.472275   
O14      O      0.244750000000     0.405950000000     0.082170000000    -0.48477    
O15      O      0.271990000000     0.344820000000     0.121470000000    -0.487993   
O16      O      0.220780000000     0.388700000000     0.180660000000    -0.484309   
O17      O      0.330700000000     0.085310000000     0.895080000000    -0.482226   
O18      O      0.333730000000     0.125640000000     0.924980000000    -0.476567   
O19      O      0.358860000000     0.065930000000     0.017060000000    -0.478551   
O20      O      0.396500000000     0.102220000000     0.935780000000    -0.480081   
O21      O      0.332820000000     0.121630000000     0.031300000000    -0.482094   
O22      O      0.399660000000     0.145020000000     0.942980000000    -0.490659   
O23      O      0.315530000000     0.057500000000     0.990050000000    -0.487531   
O24      O      0.377560000000     0.131210000000     0.050920000000    -0.486041   
O25      O      0.102540000000     0.233710000000     0.888820000000    -0.486616   
O26      O      0.139610000000     0.254260000000     0.833410000000    -0.478514   
O27      O      0.108700000000     0.184950000000     0.809940000000    -0.483683   
O28      O      0.048400000000     0.176250000000     0.823460000000    -0.483943   
O29      O      0.110090000000     0.265770000000     0.761090000000    -0.478566   
O30      O      0.049610000000     0.218120000000     0.832050000000    -0.488085   
O31      O      0.108140000000     0.200890000000     0.731390000000    -0.489362   
O32      O      0.074650000000     0.227500000000     0.721660000000    -0.478428   
O33      O      0.230200000000     0.080460000000     0.689580000000    -0.48755    
O34      O      0.245540000000     0.127000000000     0.701980000000    -0.477718   
O35      O      0.167760000000     0.056830000000     0.622460000000    -0.487031   
O36      O      0.181900000000     0.107000000000     0.701090000000    -0.481971   
O37      O      0.258040000000     0.135220000000     0.597450000000    -0.480946   
O38      O      0.185900000000     0.128880000000     0.626390000000    -0.483843   
O39      O      0.208550000000     0.064700000000     0.583390000000    -0.493278   
O40      O      0.218670000000     0.126330000000     0.553000000000    -0.475714   
O41      O      0.112110000000     0.360670000000     0.548230000000    -0.489729   
O42      O      0.077630000000     0.322490000000     0.507470000000    -0.481756   
O43      O      0.062690000000     0.358990000000     0.398050000000    -0.488358   
O44      O      0.092600000000     0.408000000000     0.506540000000    -0.481928   
O45      O      0.118550000000     0.346560000000     0.421490000000    -0.482161   
O46      O      0.136460000000     0.414720000000     0.486390000000    -0.483212   
O47      O      0.044620000000     0.352620000000     0.477420000000    -0.480445   
O48      O      0.124170000000     0.387940000000     0.391330000000    -0.476071   
O49      O      0.381800000000     0.729530000000     0.259470000000    -0.478712   
O50      O      0.335640000000     0.716440000000     0.243370000000    -0.484872   
O51      O      0.412400000000     0.785590000000     0.292190000000    -0.480917   
O52      O      0.344520000000     0.788440000000     0.310870000000    -0.485552   
O53      O      0.351810000000     0.723530000000     0.377060000000    -0.484207   
O54      O      0.352220000000     0.776840000000     0.232620000000    -0.488678   
O55      O      0.394270000000     0.780860000000     0.371350000000    -0.482716   
O56      O      0.315400000000     0.729300000000     0.349290000000    -0.482603   
O57      O      0.235330000000     0.848860000000     0.044400000000    -0.479634   
O58      O      0.198070000000     0.827900000000     0.099290000000    -0.48376    
O59      O      0.272340000000     0.864350000000     0.197040000000    -0.484297   
O60      O      0.285670000000     0.913930000000     0.120030000000    -0.485052   
O61      O      0.209930000000     0.844110000000     0.201280000000    -0.472536   
O62      O      0.244750000000     0.905950000000     0.082170000000    -0.484778   
O63      O      0.271990000000     0.844820000000     0.121470000000    -0.487988   
O64      O      0.220780000000     0.888700000000     0.180660000000    -0.484419   
O65      O      0.330700000000     0.585310000000     0.895080000000    -0.48222    
O66      O      0.333730000000     0.625640000000     0.924980000000    -0.476565   
O67      O      0.358860000000     0.565930000000     0.017060000000    -0.478567   
O68      O      0.396500000000     0.602220000000     0.935780000000    -0.480082   
O69      O      0.332820000000     0.621630000000     0.031300000000    -0.48209    
O70      O      0.399660000000     0.645020000000     0.942980000000    -0.490664   
O71      O      0.315530000000     0.557500000000     0.990050000000    -0.487543   
O72      O      0.377560000000     0.631210000000     0.050920000000    -0.486037   
O73      O      0.102540000000     0.733710000000     0.888820000000    -0.486462   
O74      O      0.139610000000     0.754260000000     0.833410000000    -0.478479   
O75      O      0.108700000000     0.684950000000     0.809940000000    -0.48386    
O76      O      0.048400000000     0.676250000000     0.823460000000    -0.484026   
O77      O      0.110090000000     0.765770000000     0.761090000000    -0.478373   
O78      O      0.049610000000     0.718120000000     0.832050000000    -0.487958   
O79      O      0.108140000000     0.700890000000     0.731390000000    -0.489491   
O80      O      0.074640000000     0.727500000000     0.721660000000    -0.478229   
O81      O      0.230200000000     0.580460000000     0.689580000000    -0.487536   
O82      O      0.245540000000     0.627000000000     0.701980000000    -0.477708   
O83      O      0.167760000000     0.556830000000     0.622460000000    -0.487022   
O84      O      0.181900000000     0.607000000000     0.701090000000    -0.482083   
O85      O      0.258040000000     0.635220000000     0.597450000000    -0.480942   
O86      O      0.185900000000     0.628880000000     0.626390000000    -0.483863   
O87      O      0.208550000000     0.564700000000     0.583390000000    -0.493268   
O88      O      0.218670000000     0.626330000000     0.553000000000    -0.475708   
O89      O      0.112110000000     0.860670000000     0.548230000000    -0.489655   
O90      O      0.077630000000     0.822480000000     0.507470000000    -0.48149    
O91      O      0.062690000000     0.858990000000     0.398050000000    -0.488309   
O92      O      0.092600000000     0.908010000000     0.506540000000    -0.481624   
O93      O      0.118550000000     0.846560000000     0.421490000000    -0.482101   
O94      O      0.136470000000     0.914720000000     0.486390000000    -0.482881   
O95      O      0.044620000000     0.852620000000     0.477420000000    -0.480435   
O96      O      0.124170000000     0.887940000000     0.391330000000    -0.476022   
O97      O      0.881810000000     0.229530000000     0.259470000000    -0.478328   
O98      O      0.835640000000     0.216440000000     0.243370000000    -0.484889   
O99      O      0.912400000000     0.285590000000     0.292190000000    -0.480902   
O100     O      0.844520000000     0.288440000000     0.310870000000    -0.485522   
O101     O      0.851810000000     0.223530000000     0.377060000000    -0.484106   
O102     O      0.852220000000     0.276840000000     0.232620000000    -0.488649   
O103     O      0.894270000000     0.280860000000     0.371350000000    -0.482687   
O104     O      0.815390000000     0.229300000000     0.349290000000    -0.482264   
O105     O      0.735330000000     0.348860000000     0.044400000000    -0.479618   
O106     O      0.698070000000     0.327910000000     0.099290000000    -0.483791   
O107     O      0.772340000000     0.364350000000     0.197040000000    -0.484294   
O108     O      0.785670000000     0.413930000000     0.120030000000    -0.484963   
O109     O      0.709930000000     0.344100000000     0.201280000000    -0.472265   
O110     O      0.744740000000     0.405950000000     0.082170000000    -0.484503   
O111     O      0.771990000000     0.344820000000     0.121470000000    -0.487985   
O112     O      0.720780000000     0.388700000000     0.180660000000    -0.484298   
O113     O      0.830700000000     0.085310000000     0.895080000000    -0.482232   
O114     O      0.833730000000     0.125640000000     0.924980000000    -0.476572   
O115     O      0.858860000000     0.065930000000     0.017060000000    -0.478565   
O116     O      0.896500000000     0.102220000000     0.935780000000    -0.480116   
O117     O      0.832820000000     0.121630000000     0.031300000000    -0.482103   
O118     O      0.899660000000     0.145020000000     0.942980000000    -0.490695   
O119     O      0.815530000000     0.057500000000     0.990050000000    -0.487533   
O120     O      0.877560000000     0.131210000000     0.050920000000    -0.486061   
O121     O      0.602540000000     0.233710000000     0.888820000000    -0.486626   
O122     O      0.639610000000     0.254260000000     0.833410000000    -0.478517   
O123     O      0.608700000000     0.184950000000     0.809940000000    -0.483696   
O124     O      0.548400000000     0.176250000000     0.823460000000    -0.483919   
O125     O      0.610090000000     0.265770000000     0.761090000000    -0.478573   
O126     O      0.549610000000     0.218120000000     0.832050000000    -0.488134   
O127     O      0.608140000000     0.200890000000     0.731390000000    -0.489372   
O128     O      0.574650000000     0.227500000000     0.721660000000    -0.478448   
O129     O      0.730200000000     0.080460000000     0.689580000000    -0.487553   
O130     O      0.745540000000     0.127000000000     0.701980000000    -0.477721   
O131     O      0.667760000000     0.056830000000     0.622460000000    -0.487036   
O132     O      0.681900000000     0.107000000000     0.701090000000    -0.481975   
O133     O      0.758040000000     0.135220000000     0.597450000000    -0.480951   
O134     O      0.685900000000     0.128880000000     0.626390000000    -0.483847   
O135     O      0.708550000000     0.064700000000     0.583390000000    -0.493278   
O136     O      0.718670000000     0.126330000000     0.553000000000    -0.475717   
O137     O      0.612110000000     0.360670000000     0.548230000000    -0.48975    
O138     O      0.577630000000     0.322490000000     0.507470000000    -0.48177    
O139     O      0.562690000000     0.358990000000     0.398050000000    -0.488416   
O140     O      0.592600000000     0.408000000000     0.506540000000    -0.481945   
O141     O      0.618550000000     0.346560000000     0.421490000000    -0.48219    
O142     O      0.636460000000     0.414720000000     0.486390000000    -0.483233   
O143     O      0.544630000000     0.352620000000     0.477420000000    -0.480697   
O144     O      0.624170000000     0.387940000000     0.391330000000    -0.476102   
O145     O      0.881810000000     0.729530000000     0.259470000000    -0.478409   
O146     O      0.835640000000     0.716440000000     0.243370000000    -0.484778   
O147     O      0.912400000000     0.785590000000     0.292190000000    -0.480923   
O148     O      0.844520000000     0.788440000000     0.310870000000    -0.485534   
O149     O      0.851810000000     0.723530000000     0.377060000000    -0.484202   
O150     O      0.852220000000     0.776840000000     0.232620000000    -0.488671   
O151     O      0.894270000000     0.780860000000     0.371350000000    -0.482703   
O152     O      0.815400000000     0.729300000000     0.349290000000    -0.482585   
O153     O      0.735330000000     0.848860000000     0.044400000000    -0.479658   
O154     O      0.698070000000     0.827900000000     0.099290000000    -0.483784   
O155     O      0.772340000000     0.864350000000     0.197040000000    -0.484307   
O156     O      0.785670000000     0.913930000000     0.120030000000    -0.485066   
O157     O      0.709930000000     0.844110000000     0.201280000000    -0.472555   
O158     O      0.744750000000     0.905950000000     0.082170000000    -0.484789   
O159     O      0.771990000000     0.844820000000     0.121470000000    -0.488011   
O160     O      0.720790000000     0.888700000000     0.180660000000    -0.484569   
O161     O      0.830700000000     0.585310000000     0.895080000000    -0.482226   
O162     O      0.833730000000     0.625640000000     0.924980000000    -0.47657    
O163     O      0.858860000000     0.565930000000     0.017060000000    -0.478579   
O164     O      0.896500000000     0.602220000000     0.935780000000    -0.480115   
O165     O      0.832820000000     0.621630000000     0.031300000000    -0.482095   
O166     O      0.899660000000     0.645020000000     0.942980000000    -0.490698   
O167     O      0.815530000000     0.557500000000     0.990050000000    -0.487547   
O168     O      0.877560000000     0.631210000000     0.050920000000    -0.486054   
O169     O      0.602540000000     0.733710000000     0.888820000000    -0.486474   
O170     O      0.639610000000     0.754260000000     0.833410000000    -0.478481   
O171     O      0.608700000000     0.684950000000     0.809940000000    -0.483866   
O172     O      0.548400000000     0.676250000000     0.823460000000    -0.48412    
O173     O      0.610090000000     0.765770000000     0.761090000000    -0.47838    
O174     O      0.549610000000     0.718120000000     0.832050000000    -0.488033   
O175     O      0.608140000000     0.700890000000     0.731390000000    -0.489497   
O176     O      0.574640000000     0.727500000000     0.721660000000    -0.478247   
O177     O      0.730200000000     0.580460000000     0.689580000000    -0.487501   
O178     O      0.745530000000     0.627000000000     0.701980000000    -0.477709   
O179     O      0.667760000000     0.556830000000     0.622460000000    -0.487042   
O180     O      0.681900000000     0.607000000000     0.701090000000    -0.482076   
O181     O      0.758040000000     0.635220000000     0.597450000000    -0.48096    
O182     O      0.685900000000     0.628880000000     0.626390000000    -0.483872   
O183     O      0.708550000000     0.564700000000     0.583390000000    -0.493288   
O184     O      0.718670000000     0.626330000000     0.553000000000    -0.475722   
O185     O      0.612110000000     0.860670000000     0.548230000000    -0.489668   
O186     O      0.577630000000     0.822480000000     0.507470000000    -0.481519   
O187     O      0.562690000000     0.858990000000     0.398050000000    -0.488344   
O188     O      0.592600000000     0.908010000000     0.506540000000    -0.481747   
O189     O      0.618550000000     0.846560000000     0.421490000000    -0.482119   
O190     O      0.636460000000     0.914720000000     0.486390000000    -0.483177   
O191     O      0.544620000000     0.852620000000     0.477420000000    -0.480498   
O192     O      0.624170000000     0.887940000000     0.391330000000    -0.476027   


