data_structure

_audit_creation_method RASPA-1.0
_audit_creation_date 2023-5-22
_audit_author_name 'Poobodin Mano'

_cell_length_a    53.583
_cell_length_b    53.5896
_cell_length_c    53.571
_cell_angle_alpha 89.9996
_cell_angle_beta  89.9998
_cell_angle_gamma 90.0009
_cell_volume      153829

_symmetry_cell_setting          triclinic
_symmetry_space_group_name_Hall 'P 1'
_symmetry_space_group_name_H-M  'P 1'
_symmetry_Int_Tables_number     1

_symmetry_equiv_pos_as_xyz 'x,y,z'

loop_
_atom_site_label
_atom_site_type_symbol
_atom_site_fract_x
_atom_site_fract_y
_atom_site_fract_z
_atom_site_charge
C1       C      0.547000000000     0.743390000000     0.892690000000     0.350145   
C2       C      0.632420000000     0.710220000000     0.887340000000     0.348725   
C3       C      0.606390000000     0.779460000000     0.861320000000     0.349139   
C4       C      0.601050000000     0.746260000000     0.946750000000     0.349764   
C5       C      0.547000000000     0.743380000000     0.108630000000     0.349449   
C6       C      0.632410000000     0.710200000000     0.114000000000     0.348831   
C7       C      0.601060000000     0.746250000000     0.054580000000     0.349492   
C8       C      0.606400000000     0.779440000000     0.140010000000     0.348657   
C9       C      0.439190000000     0.743380000000     0.892650000000     0.3496     
C10      C      0.353770000000     0.710200000000     0.887280000000     0.348374   
C11      C      0.385130000000     0.746250000000     0.946700000000     0.349644   
C12      C      0.379800000000     0.779430000000     0.861260000000     0.348579   
C13      C      0.439190000000     0.743380000000     0.108590000000     0.349512   
C14      C      0.353770000000     0.710220000000     0.113950000000     0.34903    
C15      C      0.379810000000     0.779460000000     0.139950000000     0.348913   
C16      C      0.385140000000     0.746250000000     0.054520000000     0.349302   
C17      C      0.741620000000     0.440970000000     0.892670000000     0.349444   
C18      C      0.708440000000     0.355550000000     0.887300000000     0.34883    
C19      C      0.777680000000     0.381580000000     0.861280000000     0.348759   
C20      C      0.744500000000     0.386910000000     0.946720000000     0.349285   
C21      C      0.741650000000     0.440940000000     0.108620000000     0.349541   
C22      C      0.708500000000     0.355520000000     0.113960000000     0.348647   
C23      C      0.744530000000     0.386900000000     0.054550000000     0.349417   
C24      C      0.777730000000     0.381550000000     0.139980000000     0.348632   
C25      C      0.741630000000     0.548760000000     0.892680000000     0.349396   
C26      C      0.708460000000     0.634180000000     0.887330000000     0.348595   
C27      C      0.744500000000     0.602800000000     0.946750000000     0.349604   
C28      C      0.777700000000     0.608140000000     0.861310000000     0.348852   
C29      C      0.741620000000     0.548730000000     0.108620000000     0.349905   
C30      C      0.708450000000     0.634140000000     0.114000000000     0.348578   
C31      C      0.777680000000     0.608100000000     0.140020000000     0.348617   
C32      C      0.744490000000     0.602790000000     0.054570000000     0.349663   
C33      C      0.547060000000     0.886920000000     0.252070000000     0.349577   
C34      C      0.632490000000     0.881560000000     0.285270000000     0.34835    
C35      C      0.606450000000     0.855520000000     0.216040000000     0.348752   
C36      C      0.601130000000     0.940950000000     0.249190000000     0.350047   
C37      C      0.547090000000     0.102790000000     0.252050000000     0.349743   
C38      C      0.632520000000     0.108120000000     0.285230000000     0.34837    
C39      C      0.601140000000     0.048740000000     0.249170000000     0.349351   
C40      C      0.606490000000     0.134160000000     0.216000000000     0.349117   
C41      C      0.439290000000     0.102800000000     0.252040000000     0.349558   
C42      C      0.353850000000     0.108130000000     0.285210000000     0.34858    
C43      C      0.379890000000     0.134190000000     0.215990000000     0.348781   
C44      C      0.385250000000     0.048760000000     0.249140000000     0.349537   
C45      C      0.439260000000     0.886920000000     0.252040000000     0.349648   
C46      C      0.353820000000     0.881590000000     0.285180000000     0.348678   
C47      C      0.385230000000     0.940970000000     0.249130000000     0.349775   
C48      C      0.379860000000     0.855540000000     0.215970000000     0.348589   
C49      C      0.439180000000     0.246300000000     0.892630000000     0.349529   
C50      C      0.353760000000     0.279460000000     0.887280000000     0.348545   
C51      C      0.379780000000     0.210230000000     0.861270000000     0.348919   
C52      C      0.385130000000     0.243430000000     0.946700000000     0.349796   
C53      C      0.439230000000     0.246320000000     0.108580000000     0.349456   
C54      C      0.353810000000     0.279500000000     0.113950000000     0.348515   
C55      C      0.385160000000     0.243460000000     0.054520000000     0.349906   
C56      C      0.379850000000     0.210270000000     0.139960000000     0.349102   
C57      C      0.546980000000     0.246320000000     0.892630000000     0.349434   
C58      C      0.632400000000     0.279500000000     0.887280000000     0.349001   
C59      C      0.601050000000     0.243450000000     0.946700000000     0.349713   
C60      C      0.606370000000     0.210260000000     0.861270000000     0.348486   
C61      C      0.547040000000     0.246300000000     0.108590000000     0.349448   
C62      C      0.632460000000     0.279460000000     0.113940000000     0.348696   
C63      C      0.606440000000     0.210230000000     0.139950000000     0.348861   
C64      C      0.601080000000     0.243430000000     0.054520000000     0.349514   
C65      C      0.101060000000     0.440910000000     0.252100000000     0.349336   
C66      C      0.106420000000     0.355480000000     0.285270000000     0.348952   
C67      C      0.047020000000     0.386850000000     0.249220000000     0.349387   
C68      C      0.132460000000     0.381530000000     0.216050000000     0.348484   
C69      C      0.885160000000     0.440890000000     0.252110000000     0.34961    
C70      C      0.879830000000     0.355460000000     0.285270000000     0.348536   
C71      C      0.853790000000     0.381510000000     0.216040000000     0.348546   
C72      C      0.939220000000     0.386850000000     0.249220000000     0.349747   
C73      C      0.885140000000     0.548680000000     0.252110000000     0.349593   
C74      C      0.879800000000     0.634110000000     0.285290000000     0.348684   
C75      C      0.939180000000     0.602730000000     0.249220000000     0.349773   
C76      C      0.853750000000     0.608070000000     0.216060000000     0.348629   
C77      C      0.101040000000     0.548690000000     0.252080000000     0.349959   
C78      C      0.106380000000     0.634130000000     0.285230000000     0.348605   
C79      C      0.132420000000     0.608080000000     0.216010000000     0.348707   
C80      C      0.046990000000     0.602730000000     0.249190000000     0.349803   
C81      C      0.244570000000     0.548730000000     0.892660000000     0.34997    
C82      C      0.277740000000     0.634150000000     0.887280000000     0.348828   
C83      C      0.208510000000     0.608100000000     0.861260000000     0.348307   
C84      C      0.241690000000     0.602790000000     0.946700000000     0.349412   
C85      C      0.244570000000     0.548740000000     0.108590000000     0.349763   
C86      C      0.277730000000     0.634170000000     0.113950000000     0.349088   
C87      C      0.241690000000     0.602790000000     0.054530000000     0.349864   
C88      C      0.208490000000     0.608120000000     0.139960000000     0.348976   
C89      C      0.244580000000     0.440950000000     0.108610000000     0.349508   
C90      C      0.277760000000     0.355540000000     0.113970000000     0.348606   
C91      C      0.208530000000     0.381560000000     0.140000000000     0.34886    
C92      C      0.241710000000     0.386900000000     0.054560000000     0.349838   
C93      C      0.244560000000     0.440940000000     0.892670000000     0.350016   
C94      C      0.277720000000     0.355520000000     0.887310000000     0.348669   
C95      C      0.241690000000     0.386890000000     0.946730000000     0.349864   
C96      C      0.208490000000     0.381550000000     0.861300000000     0.348539   
C97      C      0.885160000000     0.743410000000     0.554570000000     0.349686   
C98      C      0.879830000000     0.710220000000     0.640000000000     0.348718   
C99      C      0.939220000000     0.746270000000     0.608620000000     0.349453   
C100     C      0.853810000000     0.779460000000     0.614000000000     0.348669   
C101     C      0.101080000000     0.743380000000     0.554500000000     0.349661   
C102     C      0.106420000000     0.710180000000     0.639930000000     0.34918    
C103     C      0.132450000000     0.779420000000     0.613920000000     0.348836   
C104     C      0.047030000000     0.746250000000     0.608580000000     0.350039   
C105     C      0.885170000000     0.743390000000     0.446740000000     0.349509   
C106     C      0.879810000000     0.710190000000     0.361320000000     0.348668   
C107     C      0.853800000000     0.779430000000     0.387330000000     0.348552   
C108     C      0.939220000000     0.746260000000     0.392670000000     0.349851   
C109     C      0.101090000000     0.743410000000     0.446680000000     0.349476   
C110     C      0.106400000000     0.710220000000     0.361250000000     0.348909   
C111     C      0.047020000000     0.746270000000     0.392630000000     0.349622   
C112     C      0.132440000000     0.779460000000     0.387240000000     0.34877    
C113     C      0.101040000000     0.440900000000     0.749170000000     0.349391   
C114     C      0.106390000000     0.355470000000     0.716020000000     0.348503   
C115     C      0.132420000000     0.381530000000     0.785250000000     0.348622   
C116     C      0.046990000000     0.386860000000     0.752070000000     0.349575   
C117     C      0.885150000000     0.440930000000     0.749190000000     0.349731   
C118     C      0.879800000000     0.355500000000     0.716020000000     0.348558   
C119     C      0.939190000000     0.386880000000     0.752070000000     0.349583   
C120     C      0.853750000000     0.381560000000     0.785240000000     0.348612   
C121     C      0.885150000000     0.548720000000     0.749200000000     0.349798   
C122     C      0.879820000000     0.634150000000     0.716040000000     0.348624   
C123     C      0.853770000000     0.608110000000     0.785270000000     0.348557   
C124     C      0.939200000000     0.602760000000     0.752080000000     0.349626   
C125     C      0.101050000000     0.548690000000     0.749160000000     0.349398   
C126     C      0.106400000000     0.634110000000     0.715980000000     0.34859    
C127     C      0.047010000000     0.602740000000     0.752050000000     0.349469   
C128     C      0.132440000000     0.608080000000     0.785210000000     0.34871    
C129     C      0.244560000000     0.102740000000     0.446670000000     0.349822   
C130     C      0.277770000000     0.108100000000     0.361240000000     0.348784   
C131     C      0.241690000000     0.048700000000     0.392600000000     0.349555   
C132     C      0.208530000000     0.134120000000     0.387260000000     0.348892   
C133     C      0.244530000000     0.886850000000     0.446640000000     0.3497     
C134     C      0.277730000000     0.881540000000     0.361210000000     0.348512   
C135     C      0.208480000000     0.855500000000     0.387220000000     0.348397   
C136     C      0.241660000000     0.940910000000     0.392600000000     0.3497     
C137     C      0.244530000000     0.886840000000     0.554470000000     0.350034   
C138     C      0.277720000000     0.881510000000     0.639910000000     0.348997   
C139     C      0.241650000000     0.940890000000     0.608530000000     0.349487   
C140     C      0.208490000000     0.855470000000     0.613890000000     0.348641   
C141     C      0.244520000000     0.102740000000     0.554500000000     0.34955    
C142     C      0.277690000000     0.108060000000     0.639940000000     0.348541   
C143     C      0.208470000000     0.134090000000     0.613920000000     0.348549   
C144     C      0.241640000000     0.048680000000     0.608540000000     0.34972    
C145     C      0.101120000000     0.246200000000     0.446740000000     0.349423   
C146     C      0.106450000000     0.279400000000     0.361310000000     0.348752   
C147     C      0.132480000000     0.210170000000     0.387300000000     0.348669   
C148     C      0.047060000000     0.243340000000     0.392680000000     0.349189   
C149     C      0.885200000000     0.246210000000     0.446750000000     0.349912   
C150     C      0.879860000000     0.279400000000     0.361310000000     0.348742   
C151     C      0.939260000000     0.243340000000     0.392690000000     0.349649   
C152     C      0.853840000000     0.210160000000     0.387330000000     0.348968   
C153     C      0.885170000000     0.246210000000     0.554570000000     0.349532   
C154     C      0.879810000000     0.279420000000     0.640000000000     0.348718   
C155     C      0.853790000000     0.210180000000     0.613990000000     0.348841   
C156     C      0.939210000000     0.243350000000     0.608640000000     0.350146   
C157     C      0.101080000000     0.246200000000     0.554560000000     0.349737   
C158     C      0.106410000000     0.279390000000     0.640000000000     0.348462   
C159     C      0.047020000000     0.243330000000     0.608630000000     0.349442   
C160     C      0.132430000000     0.210150000000     0.613980000000     0.348606   
C161     C      0.741720000000     0.886870000000     0.554600000000     0.349354   
C162     C      0.708530000000     0.881540000000     0.640040000000     0.349083   
C163     C      0.777760000000     0.855510000000     0.614020000000     0.348615   
C164     C      0.744590000000     0.940920000000     0.608660000000     0.349153   
C165     C      0.741720000000     0.102760000000     0.554580000000     0.349402   
C166     C      0.708500000000     0.108100000000     0.640000000000     0.348819   
C167     C      0.744580000000     0.048710000000     0.608640000000     0.349825   
C168     C      0.777750000000     0.134130000000     0.614000000000     0.348609   
C169     C      0.741740000000     0.102750000000     0.446750000000     0.34959    
C170     C      0.708570000000     0.108090000000     0.361300000000     0.348346   
C171     C      0.777800000000     0.134110000000     0.387330000000     0.348272   
C172     C      0.744620000000     0.048700000000     0.392700000000     0.349265   
C173     C      0.741730000000     0.886860000000     0.446780000000     0.349835   
C174     C      0.708540000000     0.881540000000     0.361340000000     0.348762   
C175     C      0.744610000000     0.940910000000     0.392720000000     0.3501     
C176     C      0.777770000000     0.855490000000     0.387360000000     0.348788   
C177     C      0.439190000000     0.886890000000     0.749180000000     0.349504   
C178     C      0.353770000000     0.881540000000     0.715980000000     0.348659   
C179     C      0.379800000000     0.855500000000     0.785220000000     0.348594   
C180     C      0.385140000000     0.940930000000     0.752060000000     0.349634   
C181     C      0.439170000000     0.102770000000     0.749200000000     0.349498   
C182     C      0.353740000000     0.108090000000     0.716010000000     0.348766   
C183     C      0.385130000000     0.048720000000     0.752080000000     0.349563   
C184     C      0.379770000000     0.134150000000     0.785240000000     0.348685   
C185     C      0.546990000000     0.886900000000     0.749220000000     0.350098   
C186     C      0.632440000000     0.881570000000     0.716070000000     0.348819   
C187     C      0.601030000000     0.940950000000     0.752110000000     0.349702   
C188     C      0.606380000000     0.855530000000     0.785290000000     0.348734   
C189     C      0.546970000000     0.102780000000     0.749200000000     0.349512   
C190     C      0.632410000000     0.108110000000     0.716030000000     0.348676   
C191     C      0.606360000000     0.134180000000     0.785240000000     0.348555   
C192     C      0.601020000000     0.048740000000     0.752100000000     0.349548   
C193     C      0.594330000000     0.981840000000     0.731160000000    -0.00539267 
C194     C      0.602150000000     0.968510000000     0.752320000000    -0.074077   
C195     C      0.610350000000     0.981760000000     0.773430000000    -0.00545164 
C196     C      0.610350000000     0.007940000000     0.773420000000    -0.0054728  
C197     C      0.602140000000     0.021190000000     0.752310000000    -0.0740701  
C198     C      0.594330000000     0.007840000000     0.731150000000    -0.00547536 
C199     C      0.480070000000     0.096080000000     0.770150000000    -0.00550725 
C200     C      0.466730000000     0.103900000000     0.748990000000    -0.073978   
C201     C      0.479980000000     0.112090000000     0.727870000000    -0.00551319 
C202     C      0.506160000000     0.112100000000     0.727870000000    -0.0054746  
C203     C      0.519420000000     0.103900000000     0.748990000000    -0.0741162  
C204     C      0.506070000000     0.096080000000     0.770150000000    -0.00541245 
C205     C      0.391840000000     0.981830000000     0.731120000000    -0.00536109 
C206     C      0.384010000000     0.968480000000     0.752270000000    -0.0741682  
C207     C      0.375800000000     0.981730000000     0.773380000000    -0.00538231 
C208     C      0.375800000000     0.007910000000     0.773390000000    -0.00556815 
C209     C      0.384010000000     0.021160000000     0.752280000000    -0.0739519  
C210     C      0.391840000000     0.007820000000     0.731120000000    -0.00549925 
C211     C      0.480090000000     0.893590000000     0.770140000000    -0.00549598 
C212     C      0.466750000000     0.885770000000     0.748980000000    -0.0739732  
C213     C      0.480010000000     0.877570000000     0.727870000000    -0.00556479 
C214     C      0.506190000000     0.877570000000     0.727880000000    -0.00533766 
C215     C      0.519440000000     0.885780000000     0.749000000000    -0.0743957  
C216     C      0.506080000000     0.893590000000     0.770150000000    -0.00526183 
C217     C      0.723680000000     0.007800000000     0.399420000000    -0.00549778 
C218     C      0.744820000000     0.021140000000     0.391580000000    -0.0738537  
C219     C      0.765930000000     0.007890000000     0.383370000000    -0.00563663 
C220     C      0.765920000000     0.981710000000     0.383370000000    -0.00529125 
C221     C      0.744820000000     0.968460000000     0.391590000000    -0.0743178  
C222     C      0.723670000000     0.981810000000     0.399430000000    -0.0053577  
C223     C      0.664230000000     0.115690000000     0.653280000000    -0.00557001 
C224     C      0.689230000000     0.110830000000     0.659550000000    -0.0740849  
C225     C      0.695530000000     0.106970000000     0.684700000000    -0.00563258 
C226     C      0.677110000000     0.106970000000     0.703100000000    -0.00568004 
C227     C      0.651970000000     0.110840000000     0.696770000000    -0.074046   
C228     C      0.645740000000     0.115690000000     0.671760000000    -0.00543936 
C229     C      0.720410000000     0.112090000000     0.513750000000    -0.00560205 
C230     C      0.741520000000     0.103880000000     0.527010000000    -0.073902   
C231     C      0.762670000000     0.096060000000     0.513670000000    -0.00547206 
C232     C      0.762680000000     0.096060000000     0.487670000000    -0.00540084 
C233     C      0.741530000000     0.103880000000     0.474310000000    -0.0741364  
C234     C      0.720420000000     0.112090000000     0.487570000000    -0.00537823 
C235     C      0.695560000000     0.882700000000     0.684730000000    -0.00554427 
C236     C      0.689260000000     0.878820000000     0.659580000000    -0.0742765  
C237     C      0.664250000000     0.873950000000     0.653320000000    -0.00543842 
C238     C      0.645760000000     0.873960000000     0.671800000000    -0.0055585  
C239     C      0.652000000000     0.878830000000     0.696820000000    -0.0740803  
C240     C      0.677140000000     0.882710000000     0.703140000000    -0.00569559 
C241     C      0.762670000000     0.893560000000     0.513690000000    -0.00542069 
C242     C      0.741520000000     0.885740000000     0.527040000000    -0.0740485  
C243     C      0.720420000000     0.877530000000     0.513780000000    -0.00547226 
C244     C      0.720420000000     0.877530000000     0.487600000000    -0.00536998 
C245     C      0.741520000000     0.885740000000     0.474340000000    -0.0742034  
C246     C      0.762680000000     0.893560000000     0.487690000000    -0.00544837 
C247     C      0.765890000000     0.981730000000     0.618000000000    -0.00558315 
C248     C      0.744800000000     0.968480000000     0.609770000000    -0.073814   
C249     C      0.723650000000     0.981820000000     0.601930000000    -0.00557509 
C250     C      0.723650000000     0.007810000000     0.601920000000    -0.00533968 
C251     C      0.744790000000     0.021160000000     0.609770000000    -0.0742384  
C252     C      0.765890000000     0.007910000000     0.618000000000    -0.00534627 
C253     C      0.840490000000     0.165910000000     0.621600000000    -0.00550779 
C254     C      0.834240000000     0.190920000000     0.616730000000    -0.0741035  
C255     C      0.809100000000     0.197230000000     0.612860000000    -0.00562435 
C256     C      0.790690000000     0.178820000000     0.612870000000    -0.00568102 
C257     C      0.797000000000     0.153680000000     0.616740000000    -0.0740676  
C258     C      0.822010000000     0.147430000000     0.621600000000    -0.00554726 
C259     C      0.980120000000     0.264280000000     0.601910000000    -0.00539343 
C260     C      0.966770000000     0.243140000000     0.609760000000    -0.0742115  
C261     C      0.980030000000     0.222040000000     0.617990000000    -0.00543295 
C262     C      0.006200000000     0.222040000000     0.617980000000    -0.00546598 
C263     C      0.019460000000     0.243130000000     0.609750000000    -0.0740143  
C264     C      0.006120000000     0.264270000000     0.601910000000    -0.00545104 
C265     C      0.840550000000     0.165900000000     0.379740000000    -0.00543291 
C266     C      0.834290000000     0.190900000000     0.384600000000    -0.0742165  
C267     C      0.809150000000     0.197210000000     0.388460000000    -0.00554166 
C268     C      0.790740000000     0.178800000000     0.388460000000    -0.00579787 
C269     C      0.797060000000     0.153660000000     0.384600000000    -0.0738479  
C270     C      0.822070000000     0.147410000000     0.379740000000    -0.00566806 
C271     C      0.891890000000     0.225270000000     0.487660000000    -0.00532093 
C272     C      0.884070000000     0.246410000000     0.474310000000    -0.0742288  
C273     C      0.875850000000     0.267520000000     0.487560000000    -0.00547038 
C274     C      0.875840000000     0.267520000000     0.513750000000    -0.00547455 
C275     C      0.884050000000     0.246410000000     0.527010000000    -0.0740735  
C276     C      0.891890000000     0.225270000000     0.513660000000    -0.00544469 
C277     C      0.980160000000     0.264270000000     0.399400000000    -0.00534638 
C278     C      0.966820000000     0.243130000000     0.391560000000    -0.0741304  
C279     C      0.980070000000     0.222030000000     0.383340000000    -0.00538525 
C280     C      0.006250000000     0.222030000000     0.383330000000    -0.00561498 
C281     C      0.019500000000     0.243130000000     0.391560000000    -0.0738639  
C282     C      0.006160000000     0.264270000000     0.399400000000    -0.00550258 
C283     C      0.094390000000     0.225260000000     0.487650000000    -0.00542112 
C284     C      0.102230000000     0.246400000000     0.474300000000    -0.0740646  
C285     C      0.110450000000     0.267500000000     0.487560000000    -0.00549729 
C286     C      0.110440000000     0.267500000000     0.513740000000    -0.00542146 
C287     C      0.102210000000     0.246400000000     0.527000000000    -0.0741823  
C288     C      0.094390000000     0.225260000000     0.513650000000    -0.0053758  
C289     C      0.195530000000     0.178780000000     0.612830000000    -0.00575322 
C290     C      0.189210000000     0.153640000000     0.616670000000    -0.0739175  
C291     C      0.164200000000     0.147390000000     0.621530000000    -0.00563724 
C292     C      0.145720000000     0.165880000000     0.621540000000    -0.00546475 
C293     C      0.151980000000     0.190890000000     0.616700000000    -0.0740737  
C294     C      0.177120000000     0.197190000000     0.612840000000    -0.00556915 
C295     C      0.290640000000     0.106910000000     0.684650000000    -0.0057843  
C296     C      0.296950000000     0.110790000000     0.659500000000    -0.0738879  
C297     C      0.321960000000     0.115670000000     0.653250000000    -0.00565385 
C298     C      0.340440000000     0.115680000000     0.671740000000    -0.00541373 
C299     C      0.334190000000     0.110810000000     0.696750000000    -0.0741904  
C300     C      0.309050000000     0.106920000000     0.703060000000    -0.00555452 
C301     C      0.321990000000     0.873940000000     0.653210000000    -0.00549016 
C302     C      0.296980000000     0.878790000000     0.659470000000    -0.0741249  
C303     C      0.290670000000     0.882660000000     0.684620000000    -0.00568564 
C304     C      0.309080000000     0.882660000000     0.703030000000    -0.00560803 
C305     C      0.334220000000     0.878800000000     0.696720000000    -0.074073   
C306     C      0.340480000000     0.873950000000     0.671700000000    -0.00557181 
C307     C      0.262590000000     0.981790000000     0.601810000000    -0.00550823 
C308     C      0.241440000000     0.968440000000     0.609650000000    -0.0740713  
C309     C      0.220340000000     0.981690000000     0.617870000000    -0.00543892 
C310     C      0.220330000000     0.007870000000     0.617870000000    -0.00547804 
C311     C      0.241440000000     0.021120000000     0.609660000000    -0.0740817  
C312     C      0.262580000000     0.007780000000     0.601820000000    -0.00535349 
C313     C      0.265840000000     0.877510000000     0.487460000000    -0.00561795 
C314     C      0.244730000000     0.885720000000     0.474210000000    -0.0739382  
C315     C      0.223580000000     0.893540000000     0.487560000000    -0.00550964 
C316     C      0.223580000000     0.893540000000     0.513560000000    -0.00531927 
C317     C      0.244730000000     0.885710000000     0.526910000000    -0.0743111  
C318     C      0.265840000000     0.877510000000     0.513650000000    -0.00530279 
C319     C      0.164260000000     0.147430000000     0.379680000000    -0.00544988 
C320     C      0.189270000000     0.153670000000     0.384530000000    -0.0741193  
C321     C      0.195590000000     0.178810000000     0.388410000000    -0.00565387 
C322     C      0.177180000000     0.197220000000     0.388420000000    -0.00570972 
C323     C      0.152030000000     0.190910000000     0.384560000000    -0.0739959  
C324     C      0.145780000000     0.165910000000     0.379690000000    -0.00554798 
C325     C      0.262620000000     0.007800000000     0.399330000000    -0.00542379 
C326     C      0.241480000000     0.021150000000     0.391480000000    -0.0741504  
C327     C      0.220380000000     0.007900000000     0.383240000000    -0.00539173 
C328     C      0.220370000000     0.981730000000     0.383240000000    -0.00553233 
C329     C      0.241470000000     0.968470000000     0.391480000000    -0.0740251  
C330     C      0.262610000000     0.981810000000     0.399330000000    -0.00541747 
C331     C      0.223600000000     0.096050000000     0.487580000000    -0.00534943 
C332     C      0.244750000000     0.103870000000     0.474240000000    -0.074132   
C333     C      0.265860000000     0.112070000000     0.487500000000    -0.00541774 
C334     C      0.265850000000     0.112070000000     0.513680000000    -0.005523   
C335     C      0.244730000000     0.103870000000     0.526930000000    -0.0739705  
C336     C      0.223590000000     0.096050000000     0.513580000000    -0.00549126 
C337     C      0.980100000000     0.596060000000     0.731120000000    -0.005405   
C338     C      0.966760000000     0.603870000000     0.752280000000    -0.0740678  
C339     C      0.980020000000     0.612070000000     0.773390000000    -0.00543694 
C340     C      0.006200000000     0.612070000000     0.773380000000    -0.00553599 
C341     C      0.019450000000     0.603870000000     0.752260000000    -0.0739561  
C342     C      0.006100000000     0.596050000000     0.731110000000    -0.00548293 
C343     C      0.872220000000     0.342180000000     0.671750000000    -0.00555556 
C344     C      0.877070000000     0.335940000000     0.696770000000    -0.0740231  
C345     C      0.880940000000     0.310810000000     0.703100000000    -0.00569783 
C346     C      0.880940000000     0.292390000000     0.684690000000    -0.00556297 
C347     C      0.877080000000     0.298680000000     0.659540000000    -0.0741989  
C348     C      0.872220000000     0.323690000000     0.653270000000    -0.0055105  
C349     C      0.875820000000     0.481740000000     0.727870000000    -0.00546526 
C350     C      0.884030000000     0.468490000000     0.748980000000    -0.0740387  
C351     C      0.891850000000     0.481830000000     0.770140000000    -0.00550514 
C352     C      0.891850000000     0.507820000000     0.770140000000    -0.0053083  
C353     C      0.884030000000     0.521170000000     0.748990000000    -0.0741967  
C354     C      0.875820000000     0.507920000000     0.727870000000    -0.00546308 
C355     C      0.113990000000     0.342150000000     0.671750000000    -0.00553335 
C356     C      0.109130000000     0.335920000000     0.696770000000    -0.0740726  
C357     C      0.105260000000     0.310780000000     0.703100000000    -0.00566201 
C358     C      0.105270000000     0.292360000000     0.684690000000    -0.0056622  
C359     C      0.109140000000     0.298660000000     0.659540000000    -0.0740368  
C360     C      0.114000000000     0.323660000000     0.653280000000    -0.005476   
C361     C      0.980000000000     0.377550000000     0.773390000000    -0.00548242 
C362     C      0.966750000000     0.385750000000     0.752280000000    -0.0740177  
C363     C      0.980090000000     0.393570000000     0.731120000000    -0.0054636  
C364     C      0.006090000000     0.393560000000     0.731120000000    -0.00537745 
C365     C      0.019430000000     0.385740000000     0.752270000000    -0.0740833  
C366     C      0.006180000000     0.377550000000     0.773390000000    -0.00545667 
C367     C      0.094340000000     0.481800000000     0.770110000000    -0.00542486 
C368     C      0.102160000000     0.468460000000     0.748960000000    -0.0739581  
C369     C      0.110370000000     0.481710000000     0.727850000000    -0.00546418 
C370     C      0.110370000000     0.507880000000     0.727840000000    -0.00549656 
C371     C      0.102170000000     0.521140000000     0.748950000000    -0.0740386  
C372     C      0.094340000000     0.507800000000     0.770110000000    -0.00547232 
C373     C      0.177130000000     0.792400000000     0.388340000000    -0.00553911 
C374     C      0.151980000000     0.798710000000     0.384500000000    -0.0742921  
C375     C      0.145730000000     0.823720000000     0.379650000000    -0.00540426 
C376     C      0.164210000000     0.842200000000     0.379640000000    -0.00561427 
C377     C      0.189220000000     0.835950000000     0.384490000000    -0.0739405  
C378     C      0.195540000000     0.810810000000     0.388340000000    -0.00575638 
C379     C      0.809110000000     0.792380000000     0.388470000000    -0.00578266 
C380     C      0.834250000000     0.798690000000     0.384600000000    -0.0739049  
C381     C      0.840510000000     0.823700000000     0.379740000000    -0.00569194 
C382     C      0.822030000000     0.842180000000     0.379750000000    -0.00537901 
C383     C      0.797020000000     0.835940000000     0.384620000000    -0.0742103  
C384     C      0.790700000000     0.810800000000     0.388480000000    -0.00556993 
C385     C      0.980020000000     0.767560000000     0.383300000000    -0.00525087 
C386     C      0.966770000000     0.746470000000     0.391540000000    -0.0743263  
C387     C      0.980120000000     0.725330000000     0.399380000000    -0.00531633 
C388     C      0.006120000000     0.725330000000     0.399370000000    -0.0054952  
C389     C      0.019460000000     0.746470000000     0.391520000000    -0.0739808  
C390     C      0.006200000000     0.767570000000     0.383290000000    -0.00563316 
C391     C      0.177140000000     0.792370000000     0.612770000000    -0.00566177 
C392     C      0.152000000000     0.798680000000     0.616650000000    -0.0741151  
C393     C      0.145750000000     0.823680000000     0.621510000000    -0.00548925 
C394     C      0.164230000000     0.842160000000     0.621500000000    -0.00549266 
C395     C      0.189240000000     0.835920000000     0.616630000000    -0.0741235  
C396     C      0.195550000000     0.810780000000     0.612770000000    -0.00560786 
C397     C      0.105290000000     0.697220000000     0.684630000000    -0.0054818  
C398     C      0.109150000000     0.690920000000     0.659480000000    -0.0743187  
C399     C      0.113990000000     0.665910000000     0.653220000000    -0.00538852 
C400     C      0.113990000000     0.647420000000     0.671700000000    -0.0056698  
C401     C      0.109140000000     0.653670000000     0.696720000000    -0.0738644  
C402     C      0.105280000000     0.678810000000     0.703040000000    -0.00580604 
C403     C      0.094380000000     0.764340000000     0.513600000000    -0.00543389 
C404     C      0.102210000000     0.743190000000     0.526940000000    -0.0741414  
C405     C      0.110420000000     0.722090000000     0.513680000000    -0.00542326 
C406     C      0.110420000000     0.722090000000     0.487500000000    -0.00550395 
C407     C      0.102210000000     0.743200000000     0.474240000000    -0.0740665  
C408     C      0.094380000000     0.764340000000     0.487590000000    -0.00541142 
C409     C      0.809120000000     0.792410000000     0.612890000000    -0.00567258 
C410     C      0.834260000000     0.798720000000     0.616740000000    -0.0740304  
C411     C      0.840520000000     0.823730000000     0.621600000000    -0.00555112 
C412     C      0.822040000000     0.842210000000     0.621600000000    -0.00557432 
C413     C      0.797020000000     0.835960000000     0.616760000000    -0.0739807  
C414     C      0.790710000000     0.810820000000     0.612900000000    -0.00564732 
C415     C      0.880980000000     0.697260000000     0.684700000000    -0.00565601 
C416     C      0.877100000000     0.690960000000     0.659550000000    -0.0740873  
C417     C      0.872220000000     0.665960000000     0.653290000000    -0.00550777 
C418     C      0.872210000000     0.647470000000     0.671770000000    -0.00554778 
C419     C      0.877090000000     0.653710000000     0.696790000000    -0.0740472  
C420     C      0.880970000000     0.678840000000     0.703110000000    -0.00563024 
C421     C      0.875820000000     0.722100000000     0.513750000000    -0.00535943 
C422     C      0.884030000000     0.743200000000     0.527010000000    -0.0741508  
C423     C      0.891870000000     0.764350000000     0.513660000000    -0.00543696 
C424     C      0.891870000000     0.764340000000     0.487650000000    -0.00550865 
C425     C      0.884040000000     0.743190000000     0.474310000000    -0.0739229  
C426     C      0.875820000000     0.722090000000     0.487570000000    -0.00556881 
C427     C      0.980120000000     0.725330000000     0.601870000000    -0.00559423 
C428     C      0.966780000000     0.746470000000     0.609730000000    -0.0738839  
C429     C      0.980040000000     0.767570000000     0.617950000000    -0.00564981 
C430     C      0.006220000000     0.767560000000     0.617940000000    -0.00526982 
C431     C      0.019470000000     0.746460000000     0.609710000000    -0.0743098  
C432     C      0.006120000000     0.725330000000     0.601870000000    -0.00523426 
C433     C      0.164220000000     0.373960000000     0.848010000000    -0.0055248  
C434     C      0.189230000000     0.378820000000     0.841750000000    -0.0740513  
C435     C      0.195530000000     0.382690000000     0.816600000000    -0.00566318 
C436     C      0.177120000000     0.382680000000     0.798190000000    -0.005676   
C437     C      0.151980000000     0.378810000000     0.804510000000    -0.0740047  
C438     C      0.145730000000     0.373950000000     0.829520000000    -0.00555525 
C439     C      0.262640000000     0.393590000000     0.987640000000    -0.00542614 
C440     C      0.241490000000     0.385770000000     0.974300000000    -0.0740615  
C441     C      0.220380000000     0.377560000000     0.987560000000    -0.00552769 
C442     C      0.220390000000     0.377570000000     0.013740000000    -0.00538338 
C443     C      0.241500000000     0.385770000000     0.027000000000    -0.0742134  
C444     C      0.262650000000     0.393590000000     0.013640000000    -0.00539372 
C445     C      0.265880000000     0.507940000000     0.117950000000    -0.00534053 
C446     C      0.244780000000     0.521190000000     0.109720000000    -0.0742789  
C447     C      0.223640000000     0.507840000000     0.101880000000    -0.00526747 
C448     C      0.223640000000     0.481850000000     0.101880000000    -0.00557092 
C449     C      0.244780000000     0.468510000000     0.109730000000    -0.0738961  
C450     C      0.265880000000     0.481770000000     0.117950000000    -0.0055709  
C451     C      0.195550000000     0.606940000000     0.816560000000    -0.00579589 
C452     C      0.189240000000     0.610820000000     0.841710000000    -0.0738633  
C453     C      0.164240000000     0.615690000000     0.847960000000    -0.00557175 
C454     C      0.145750000000     0.615690000000     0.829480000000    -0.00548605 
C455     C      0.151990000000     0.610810000000     0.804470000000    -0.0741494  
C456     C      0.177130000000     0.606930000000     0.798150000000    -0.00555724 
C457     C      0.265870000000     0.507920000000     0.883320000000    -0.00543838 
C458     C      0.244770000000     0.521170000000     0.891540000000    -0.0741682  
C459     C      0.223630000000     0.507830000000     0.899390000000    -0.00535247 
C460     C      0.223620000000     0.481840000000     0.899390000000    -0.00544128 
C461     C      0.244770000000     0.468490000000     0.891550000000    -0.0742368  
C462     C      0.265870000000     0.481740000000     0.883320000000    -0.00541122 
C463     C      0.262640000000     0.596100000000     0.987620000000    -0.00549095 
C464     C      0.241490000000     0.603920000000     0.974270000000    -0.0739247  
C465     C      0.220380000000     0.612120000000     0.987520000000    -0.00553961 
C466     C      0.220380000000     0.612120000000     0.013710000000    -0.00544003 
C467     C      0.241490000000     0.603920000000     0.026960000000    -0.0741227  
C468     C      0.262640000000     0.596100000000     0.013620000000    -0.00537785 
C469     C      0.145730000000     0.615680000000     0.171730000000    -0.00546715 
C470     C      0.151970000000     0.610820000000     0.196750000000    -0.0741072  
C471     C      0.177110000000     0.606960000000     0.203070000000    -0.00561873 
C472     C      0.195530000000     0.606970000000     0.184660000000    -0.00568392 
C473     C      0.189220000000     0.610840000000     0.159510000000    -0.0740972  
C474     C      0.164210000000     0.615690000000     0.153250000000    -0.00555175 
C475     C      0.105240000000     0.678820000000     0.298150000000    -0.00563783 
C476     C      0.109120000000     0.653690000000     0.304480000000    -0.0740885  
C477     C      0.113990000000     0.647460000000     0.329490000000    -0.00548741 
C478     C      0.114000000000     0.665950000000     0.347970000000    -0.00554073 
C479     C      0.109130000000     0.690950000000     0.341700000000    -0.074052   
C480     C      0.105240000000     0.697240000000     0.316550000000    -0.00567639 
C481     C      0.872220000000     0.647430000000     0.329560000000    -0.00534149 
C482     C      0.877070000000     0.653660000000     0.304540000000    -0.0742171  
C483     C      0.880930000000     0.678800000000     0.298210000000    -0.005573   
C484     C      0.880940000000     0.697220000000     0.316620000000    -0.00572947 
C485     C      0.877080000000     0.690920000000     0.341770000000    -0.0739161  
C486     C      0.872220000000     0.665910000000     0.348040000000    -0.00571488 
C487     C      0.979990000000     0.612040000000     0.227890000000    -0.00541495 
C488     C      0.966740000000     0.603850000000     0.249010000000    -0.0740942  
C489     C      0.980090000000     0.596030000000     0.270160000000    -0.00543006 
C490     C      0.006090000000     0.596030000000     0.270150000000    -0.0054004  
C491     C      0.019430000000     0.603850000000     0.248990000000    -0.074105   
C492     C      0.006170000000     0.612050000000     0.227880000000    -0.00548766 
C493     C      0.880990000000     0.292360000000     0.316610000000    -0.00556328 
C494     C      0.877120000000     0.298660000000     0.341770000000    -0.074218   
C495     C      0.872260000000     0.323660000000     0.348030000000    -0.00542239 
C496     C      0.872250000000     0.342150000000     0.329550000000    -0.00561022 
C497     C      0.877110000000     0.335910000000     0.304530000000    -0.0739723  
C498     C      0.880980000000     0.310770000000     0.298200000000    -0.00579737 
C499     C      0.891860000000     0.481790000000     0.231160000000    -0.00548933 
C500     C      0.884040000000     0.468450000000     0.252320000000    -0.0739914  
C501     C      0.875830000000     0.481700000000     0.273430000000    -0.00548301 
C502     C      0.875820000000     0.507870000000     0.273430000000    -0.00542248 
C503     C      0.884020000000     0.521130000000     0.252320000000    -0.0741332  
C504     C      0.891850000000     0.507790000000     0.231160000000    -0.00542035 
C505     C      0.114020000000     0.342160000000     0.329550000000    -0.00546527 
C506     C      0.109160000000     0.335930000000     0.304530000000    -0.074141   
C507     C      0.105300000000     0.310790000000     0.298200000000    -0.00567146 
C508     C      0.105310000000     0.292370000000     0.316610000000    -0.00566156 
C509     C      0.109180000000     0.298670000000     0.341760000000    -0.074054   
C510     C      0.114030000000     0.323670000000     0.348020000000    -0.00549493 
C511     C      0.177150000000     0.382700000000     0.203110000000    -0.0056681  
C512     C      0.152010000000     0.378810000000     0.196790000000    -0.0740399  
C513     C      0.145770000000     0.373940000000     0.171780000000    -0.00551603 
C514     C      0.164260000000     0.373950000000     0.153290000000    -0.00552152 
C515     C      0.189260000000     0.378830000000     0.159550000000    -0.0740928  
C516     C      0.195570000000     0.382710000000     0.184700000000    -0.00565912 
C517     C      0.006210000000     0.377530000000     0.227900000000    -0.00555392 
C518     C      0.019460000000     0.385730000000     0.249020000000    -0.0739843  
C519     C      0.006120000000     0.393550000000     0.270170000000    -0.00542218 
C520     C      0.980120000000     0.393550000000     0.270170000000    -0.00540591 
C521     C      0.966780000000     0.385730000000     0.249020000000    -0.0741249  
C522     C      0.980030000000     0.377530000000     0.227900000000    -0.00541496 
C523     C      0.110380000000     0.481720000000     0.273410000000    -0.00548918 
C524     C      0.102170000000     0.468460000000     0.252300000000    -0.0740674  
C525     C      0.094350000000     0.481800000000     0.231150000000    -0.00537747 
C526     C      0.094350000000     0.507790000000     0.231140000000    -0.00538755 
C527     C      0.102170000000     0.521140000000     0.252290000000    -0.0742601  
C528     C      0.110370000000     0.507890000000     0.273410000000    -0.00541011 
C529     C      0.605230000000     0.197290000000     0.816570000000    -0.0057074  
C530     C      0.609100000000     0.190990000000     0.841720000000    -0.0738936  
C531     C      0.613970000000     0.165990000000     0.847990000000    -0.00563787 
C532     C      0.613970000000     0.147500000000     0.829510000000    -0.00545309 
C533     C      0.609100000000     0.153730000000     0.804490000000    -0.0741131  
C534     C      0.605220000000     0.178870000000     0.798170000000    -0.00563762 
C535     C      0.610400000000     0.222140000000     0.987510000000    -0.00537292 
C536     C      0.602180000000     0.243240000000     0.974260000000    -0.0742119  
C537     C      0.594350000000     0.264380000000     0.987610000000    -0.00532541 
C538     C      0.594360000000     0.264380000000     0.013610000000    -0.00549985 
C539     C      0.602190000000     0.243230000000     0.026960000000    -0.0740426  
C540     C      0.610410000000     0.222130000000     0.013690000000    -0.00551521 
C541     C      0.322040000000     0.342250000000     0.121550000000    -0.00551533 
C542     C      0.297030000000     0.336000000000     0.116710000000    -0.0740085  
C543     C      0.290710000000     0.310860000000     0.112850000000    -0.00567511 
C544     C      0.309120000000     0.292450000000     0.112850000000    -0.00567191 
C545     C      0.334270000000     0.298760000000     0.116690000000    -0.0740577  
C546     C      0.340520000000     0.323770000000     0.121540000000    -0.0055159  
C547     C      0.480130000000     0.225380000000     0.101860000000    -0.00542665 
C548     C      0.466790000000     0.246520000000     0.109700000000    -0.0739975  
C549     C      0.480050000000     0.267620000000     0.117930000000    -0.00550339 
C550     C      0.506230000000     0.267610000000     0.117930000000    -0.00549026 
C551     C      0.519480000000     0.246510000000     0.109710000000    -0.0739583  
C552     C      0.506130000000     0.225370000000     0.101860000000    -0.00549885 
C553     C      0.309070000000     0.292420000000     0.888430000000    -0.00573903 
C554     C      0.334210000000     0.298730000000     0.884550000000    -0.0738925  
C555     C      0.340460000000     0.323730000000     0.879690000000    -0.0055904  
C556     C      0.321980000000     0.342210000000     0.879700000000    -0.00543087 
C557     C      0.296970000000     0.335970000000     0.884570000000    -0.0741387  
C558     C      0.290660000000     0.310830000000     0.888440000000    -0.00562022 
C559     C      0.380900000000     0.197260000000     0.816570000000    -0.00567126 
C560     C      0.377040000000     0.190960000000     0.841730000000    -0.0741325  
C561     C      0.372190000000     0.165950000000     0.847990000000    -0.00549084 
C562     C      0.372190000000     0.147460000000     0.829510000000    -0.00548521 
C563     C      0.377040000000     0.153700000000     0.804500000000    -0.0741016  
C564     C      0.380900000000     0.178840000000     0.798170000000    -0.00565037 
C565     C      0.375800000000     0.222140000000     0.987530000000    -0.00539959 
C566     C      0.384020000000     0.243240000000     0.974260000000    -0.074237   
C567     C      0.391850000000     0.264380000000     0.987600000000    -0.00528595 
C568     C      0.391860000000     0.264390000000     0.013610000000    -0.00548462 
C569     C      0.384030000000     0.243250000000     0.026960000000    -0.0741695  
C570     C      0.375810000000     0.222140000000     0.013710000000    -0.00548424 
C571     C      0.479990000000     0.267610000000     0.883280000000    -0.0055255  
C572     C      0.466740000000     0.246500000000     0.891510000000    -0.0740488  
C573     C      0.480090000000     0.225370000000     0.899350000000    -0.00537148 
C574     C      0.506080000000     0.225370000000     0.899350000000    -0.00553073 
C575     C      0.519420000000     0.246520000000     0.891510000000    -0.0739892  
C576     C      0.506160000000     0.267610000000     0.883280000000    -0.00543792 
C577     C      0.340490000000     0.873970000000     0.329450000000    -0.00547542 
C578     C      0.334260000000     0.878850000000     0.304440000000    -0.074003   
C579     C      0.309120000000     0.882730000000     0.298110000000    -0.00571634 
C580     C      0.290700000000     0.882710000000     0.316520000000    -0.00561666 
C581     C      0.297000000000     0.878830000000     0.341660000000    -0.0740175  
C582     C      0.322000000000     0.873960000000     0.347930000000    -0.00556774 
C583     C      0.340540000000     0.115700000000     0.329480000000    -0.00556981 
C584     C      0.334300000000     0.110850000000     0.304470000000    -0.0740495  
C585     C      0.309160000000     0.106980000000     0.298140000000    -0.00570301 
C586     C      0.290740000000     0.106970000000     0.316550000000    -0.00559607 
C587     C      0.297040000000     0.110830000000     0.341700000000    -0.074191   
C588     C      0.322040000000     0.115690000000     0.347960000000    -0.00540819 
C589     C      0.372280000000     0.147510000000     0.171720000000    -0.00557793 
C590     C      0.377150000000     0.153750000000     0.196740000000    -0.0740762  
C591     C      0.381020000000     0.178880000000     0.203060000000    -0.00564908 
C592     C      0.381010000000     0.197300000000     0.184650000000    -0.0055743  
C593     C      0.377130000000     0.191000000000     0.159500000000    -0.0742702  
C594     C      0.372270000000     0.166000000000     0.153240000000    -0.00541627 
C595     C      0.391940000000     0.007860000000     0.270090000000    -0.00553789 
C596     C      0.384120000000     0.021200000000     0.248930000000    -0.073964   
C597     C      0.375920000000     0.007960000000     0.227820000000    -0.00546617 
C598     C      0.375920000000     0.981780000000     0.227810000000    -0.00547546 
C599     C      0.384110000000     0.968520000000     0.248930000000    -0.074173   
C600     C      0.391930000000     0.981860000000     0.270090000000    -0.00535168 
C601     C      0.614060000000     0.147480000000     0.171720000000    -0.00539704 
C602     C      0.609210000000     0.153720000000     0.196740000000    -0.0742002  
C603     C      0.605340000000     0.178850000000     0.203060000000    -0.00557542 
C604     C      0.605330000000     0.197270000000     0.184650000000    -0.00569346 
C605     C      0.609190000000     0.190970000000     0.159500000000    -0.0740624  
C606     C      0.614050000000     0.165960000000     0.153230000000    -0.00563098 
C607     C      0.645820000000     0.115700000000     0.329510000000    -0.00560768 
C608     C      0.652070000000     0.110840000000     0.304500000000    -0.0738783  
C609     C      0.677210000000     0.106960000000     0.298180000000    -0.00579274 
C610     C      0.695620000000     0.106950000000     0.316600000000    -0.00558324 
C611     C      0.689310000000     0.110820000000     0.341750000000    -0.0740315  
C612     C      0.664310000000     0.115700000000     0.348000000000    -0.00548923 
C613     C      0.506190000000     0.096100000000     0.231090000000    -0.00536812 
C614     C      0.519540000000     0.103920000000     0.252250000000    -0.074246   
C615     C      0.506280000000     0.112120000000     0.273360000000    -0.00533102 
C616     C      0.480100000000     0.112130000000     0.273360000000    -0.00557951 
C617     C      0.466850000000     0.103920000000     0.252240000000    -0.0739842  
C618     C      0.480200000000     0.096100000000     0.231090000000    -0.00545325 
C619     C      0.645790000000     0.873970000000     0.329550000000    -0.00553148 
C620     C      0.652040000000     0.878830000000     0.304540000000    -0.0739463  
C621     C      0.677180000000     0.882690000000     0.298220000000    -0.00567901 
C622     C      0.695590000000     0.882680000000     0.316630000000    -0.00570107 
C623     C      0.689280000000     0.878810000000     0.341780000000    -0.0740141  
C624     C      0.664270000000     0.873960000000     0.348040000000    -0.00555311 
C625     C      0.506240000000     0.877600000000     0.273380000000    -0.00540496 
C626     C      0.519510000000     0.885800000000     0.252270000000    -0.0741571  
C627     C      0.506170000000     0.893610000000     0.231110000000    -0.00541192 
C628     C      0.480170000000     0.893610000000     0.231100000000    -0.00542516 
C629     C      0.466820000000     0.885800000000     0.252250000000    -0.0740731  
C630     C      0.480070000000     0.877600000000     0.273370000000    -0.00547493 
C631     C      0.594420000000     0.981850000000     0.270130000000    -0.00526578 
C632     C      0.602250000000     0.968500000000     0.248980000000    -0.0743364  
C633     C      0.610470000000     0.981750000000     0.227870000000    -0.00531547 
C634     C      0.610470000000     0.007930000000     0.227860000000    -0.00563222 
C635     C      0.602260000000     0.021180000000     0.248970000000    -0.0738424  
C636     C      0.594420000000     0.007850000000     0.270130000000    -0.00559489 
C637     C      0.821950000000     0.615690000000     0.153310000000    -0.00548456 
C638     C      0.796940000000     0.610820000000     0.159570000000    -0.0741301  
C639     C      0.790640000000     0.606940000000     0.184710000000    -0.00558903 
C640     C      0.809050000000     0.606930000000     0.203120000000    -0.00571371 
C641     C      0.834190000000     0.610810000000     0.196800000000    -0.0739822  
C642     C      0.840440000000     0.615680000000     0.171790000000    -0.00559078 
C643     C      0.790660000000     0.606990000000     0.816610000000    -0.00565638 
C644     C      0.796970000000     0.610860000000     0.841760000000    -0.0741033  
C645     C      0.821980000000     0.615710000000     0.848020000000    -0.00556234 
C646     C      0.840460000000     0.615700000000     0.829540000000    -0.0054533  
C647     C      0.834220000000     0.610840000000     0.804530000000    -0.0740874  
C648     C      0.809080000000     0.606980000000     0.798200000000    -0.00569868 
C649     C      0.765810000000     0.612130000000     0.987570000000    -0.00551778 
C650     C      0.744700000000     0.603920000000     0.974310000000    -0.0741087  
C651     C      0.723550000000     0.596100000000     0.987660000000    -0.00539591 
C652     C      0.723550000000     0.596090000000     0.013660000000    -0.00542022 
C653     C      0.744700000000     0.603920000000     0.027010000000    -0.0741597  
C654     C      0.765800000000     0.612130000000     0.013760000000    -0.00536777 
C655     C      0.664230000000     0.342210000000     0.121560000000    -0.0055834  
C656     C      0.689240000000     0.335960000000     0.116690000000    -0.0739413  
C657     C      0.695560000000     0.310830000000     0.112810000000    -0.00568315 
C658     C      0.677150000000     0.292410000000     0.112800000000    -0.00570218 
C659     C      0.652010000000     0.298720000000     0.116680000000    -0.0740201  
C660     C      0.645750000000     0.323720000000     0.121560000000    -0.00553368 
C661     C      0.822000000000     0.373950000000     0.153270000000    -0.00556623 
C662     C      0.796990000000     0.378810000000     0.159530000000    -0.0740488  
C663     C      0.790680000000     0.382670000000     0.184680000000    -0.00566605 
C664     C      0.809100000000     0.382660000000     0.203100000000    -0.00569113 
C665     C      0.834240000000     0.378790000000     0.196780000000    -0.0740468  
C666     C      0.840480000000     0.373940000000     0.171760000000    -0.00548056 
C667     C      0.762580000000     0.481840000000     0.101900000000    -0.00547718 
C668     C      0.741440000000     0.468490000000     0.109740000000    -0.074048   
C669     C      0.720330000000     0.481740000000     0.117960000000    -0.00554698 
C670     C      0.720330000000     0.507910000000     0.117960000000    -0.00535306 
C671     C      0.741430000000     0.521170000000     0.109740000000    -0.0741778  
C672     C      0.762570000000     0.507840000000     0.101900000000    -0.00531839 
C673     C      0.821950000000     0.373980000000     0.847990000000    -0.00544624 
C674     C      0.796940000000     0.378850000000     0.841740000000    -0.0742279  
C675     C      0.790640000000     0.382730000000     0.816590000000    -0.0055853  
C676     C      0.809060000000     0.382720000000     0.798180000000    -0.00568231 
C677     C      0.834200000000     0.378840000000     0.804500000000    -0.0740859  
C678     C      0.840430000000     0.373970000000     0.829510000000    -0.005482   
C679     C      0.677090000000     0.292450000000     0.888400000000    -0.00559398 
C680     C      0.651940000000     0.298760000000     0.884540000000    -0.0742441  
C681     C      0.645690000000     0.323770000000     0.879700000000    -0.00540978 
C682     C      0.664170000000     0.342260000000     0.879710000000    -0.00556368 
C683     C      0.689180000000     0.336010000000     0.884560000000    -0.0741165  
C684     C      0.695500000000     0.310860000000     0.888400000000    -0.00571221 
C685     C      0.723560000000     0.393610000000     0.987640000000    -0.00555499 
C686     C      0.744710000000     0.385780000000     0.974290000000    -0.0738873  
C687     C      0.765820000000     0.377580000000     0.987530000000    -0.0055059  
C688     C      0.765830000000     0.377580000000     0.013720000000    -0.00551735 
C689     C      0.744720000000     0.385780000000     0.026980000000    -0.0739639  
C690     C      0.723570000000     0.393600000000     0.013640000000    -0.00537806 
C691     C      0.762560000000     0.481860000000     0.899390000000    -0.00537715 
C692     C      0.741420000000     0.468520000000     0.891550000000    -0.0741062  
C693     C      0.720310000000     0.481780000000     0.883330000000    -0.00540994 
C694     C      0.720310000000     0.507950000000     0.883330000000    -0.00560475 
C695     C      0.741420000000     0.521200000000     0.891560000000    -0.0738825  
C696     C      0.762560000000     0.507860000000     0.899400000000    -0.00550698 
C697     C      0.340480000000     0.665950000000     0.121540000000    -0.00559745 
C698     C      0.334220000000     0.690960000000     0.116680000000    -0.0741202  
C699     C      0.309080000000     0.697270000000     0.112820000000    -0.00565058 
C700     C      0.290670000000     0.678860000000     0.112820000000    -0.00559579 
C701     C      0.296980000000     0.653710000000     0.116690000000    -0.0743536  
C702     C      0.322000000000     0.647470000000     0.121540000000    -0.00536381 
C703     C      0.380960000000     0.792430000000     0.184640000000    -0.00559375 
C704     C      0.377090000000     0.798730000000     0.159490000000    -0.0741941  
C705     C      0.372240000000     0.823730000000     0.153220000000    -0.00549686 
C706     C      0.372260000000     0.842220000000     0.171700000000    -0.00548155 
C707     C      0.377120000000     0.835990000000     0.196720000000    -0.0740995  
C708     C      0.380970000000     0.810850000000     0.203050000000    -0.00570736 
C709     C      0.380940000000     0.792390000000     0.816560000000    -0.0058101  
C710     C      0.377070000000     0.798700000000     0.841710000000    -0.0739039  
C711     C      0.372190000000     0.823700000000     0.847970000000    -0.0056292  
C712     C      0.372200000000     0.842180000000     0.829490000000    -0.00544508 
C713     C      0.377070000000     0.835940000000     0.804470000000    -0.074129   
C714     C      0.380940000000     0.810810000000     0.798150000000    -0.00553421 
C715     C      0.340480000000     0.665930000000     0.879690000000    -0.00561103 
C716     C      0.334230000000     0.690940000000     0.884540000000    -0.0739517  
C717     C      0.309080000000     0.697250000000     0.888400000000    -0.00574055 
C718     C      0.290670000000     0.678840000000     0.888400000000    -0.00559539 
C719     C      0.296990000000     0.653690000000     0.884540000000    -0.0742931  
C720     C      0.322000000000     0.647450000000     0.879690000000    -0.00534303 
C721     C      0.391840000000     0.725300000000     0.987610000000    -0.00546843 
C722     C      0.384000000000     0.746450000000     0.974260000000    -0.07412    
C723     C      0.375790000000     0.767550000000     0.987520000000    -0.00540951 
C724     C      0.375790000000     0.767550000000     0.013700000000    -0.00551225 
C725     C      0.384010000000     0.746450000000     0.026960000000    -0.0740076  
C726     C      0.391840000000     0.725310000000     0.013610000000    -0.00541051 
C727     C      0.605270000000     0.792400000000     0.184710000000    -0.0057341  
C728     C      0.609150000000     0.798700000000     0.159560000000    -0.0740009  
C729     C      0.614020000000     0.823700000000     0.153290000000    -0.00557001 
C730     C      0.614040000000     0.842190000000     0.171770000000    -0.00548606 
C731     C      0.609170000000     0.835960000000     0.196790000000    -0.0741202  
C732     C      0.605280000000     0.810820000000     0.203110000000    -0.00561176 
C733     C      0.677100000000     0.697250000000     0.112880000000    -0.00565042 
C734     C      0.651960000000     0.690940000000     0.116740000000    -0.0740654  
C735     C      0.645700000000     0.665930000000     0.121590000000    -0.00554071 
C736     C      0.664180000000     0.647450000000     0.121590000000    -0.0054978  
C737     C      0.689190000000     0.653690000000     0.116740000000    -0.0740032  
C738     C      0.695510000000     0.678830000000     0.112880000000    -0.00569667 
C739     C      0.506180000000     0.722080000000     0.117970000000    -0.00550474 
C740     C      0.519440000000     0.743180000000     0.109750000000    -0.0739764  
C741     C      0.506100000000     0.764320000000     0.101890000000    -0.00547676 
C742     C      0.480100000000     0.764320000000     0.101880000000    -0.00542987 
C743     C      0.466750000000     0.743180000000     0.109720000000    -0.0740019  
C744     C      0.480000000000     0.722080000000     0.117960000000    -0.00549855 
C745     C      0.613970000000     0.823730000000     0.848040000000    -0.00536412 
C746     C      0.609120000000     0.798720000000     0.841780000000    -0.0743997  
C747     C      0.605260000000     0.792420000000     0.816630000000    -0.00548989 
C748     C      0.605260000000     0.810840000000     0.798220000000    -0.00573991 
C749     C      0.609120000000     0.835970000000     0.804550000000    -0.0739873  
C750     C      0.613970000000     0.842210000000     0.829560000000    -0.00556626 
C751     C      0.645720000000     0.665960000000     0.879740000000    -0.00547573 
C752     C      0.651970000000     0.690960000000     0.884600000000    -0.0740812  
C753     C      0.677110000000     0.697270000000     0.888460000000    -0.00565962 
C754     C      0.695520000000     0.678860000000     0.888460000000    -0.00563201 
C755     C      0.689210000000     0.653720000000     0.884590000000    -0.0741547  
C756     C      0.664200000000     0.647470000000     0.879730000000    -0.00553476 
C757     C      0.506090000000     0.764320000000     0.899390000000    -0.00536943 
C758     C      0.519440000000     0.743180000000     0.891550000000    -0.074217   
C759     C      0.506190000000     0.722080000000     0.883320000000    -0.0054046  
C760     C      0.480010000000     0.722080000000     0.883310000000    -0.00555028 
C761     C      0.466750000000     0.743180000000     0.891540000000    -0.0740193  
C762     C      0.480090000000     0.764320000000     0.899380000000    -0.00545603 
C763     C      0.610390000000     0.767560000000     0.987580000000    -0.00543697 
C764     C      0.602170000000     0.746460000000     0.974320000000    -0.0740693  
C765     C      0.594350000000     0.725310000000     0.987670000000    -0.00545743 
C766     C      0.594350000000     0.725310000000     0.013670000000    -0.0053764  
C767     C      0.602180000000     0.746450000000     0.027020000000    -0.0740756  
C768     C      0.610390000000     0.767560000000     0.013760000000    -0.00551897 
H1       H      0.587960000000     0.972200000000     0.714560000000     0.0515644  
H2       H      0.616490000000     0.971940000000     0.790000000000     0.0514074  
H3       H      0.616480000000     0.017760000000     0.789990000000     0.0514132  
H4       H      0.587950000000     0.017470000000     0.714560000000     0.0515963  
H5       H      0.470430000000     0.089710000000     0.786740000000     0.0516029  
H6       H      0.470160000000     0.118230000000     0.711310000000     0.0514405  
H7       H      0.515990000000     0.118230000000     0.711310000000     0.0514311  
H8       H      0.515710000000     0.089710000000     0.786740000000     0.0515812  
H9       H      0.398230000000     0.972190000000     0.714530000000     0.0515652  
H10      H      0.369650000000     0.971900000000     0.789940000000     0.0513987  
H11      H      0.369650000000     0.017730000000     0.789950000000     0.0514444  
H12      H      0.398230000000     0.017460000000     0.714530000000     0.0515938  
H13      H      0.470440000000     0.899960000000     0.786740000000     0.0515901  
H14      H      0.470190000000     0.871440000000     0.711300000000     0.0514432  
H15      H      0.516020000000     0.871440000000     0.711320000000     0.0513895  
H16      H      0.515720000000     0.899970000000     0.786750000000     0.0515207  
H17      H      0.707090000000     0.017440000000     0.405810000000     0.0515896  
H18      H      0.782490000000     0.017710000000     0.377220000000     0.0514616  
H19      H      0.782480000000     0.971890000000     0.377220000000     0.0513721  
H20      H      0.707090000000     0.972170000000     0.405820000000     0.051566   
H21      H      0.658840000000     0.118760000000     0.634040000000     0.0518327  
H22      H      0.714650000000     0.103270000000     0.690140000000     0.0509643  
H23      H      0.682530000000     0.103280000000     0.722230000000     0.0509869  
H24      H      0.626500000000     0.118760000000     0.666340000000     0.0517918  
H25      H      0.703850000000     0.118230000000     0.523570000000     0.0514601  
H26      H      0.779260000000     0.089680000000     0.523320000000     0.0515864  
H27      H      0.779270000000     0.089680000000     0.478030000000     0.051569   
H28      H      0.703860000000     0.118230000000     0.477730000000     0.0514024  
H29      H      0.714680000000     0.886410000000     0.690170000000     0.0509427  
H30      H      0.658860000000     0.870870000000     0.634080000000     0.0518058  
H31      H      0.626530000000     0.870880000000     0.666390000000     0.0518361  
H32      H      0.682550000000     0.886420000000     0.722270000000     0.0509965  
H33      H      0.779260000000     0.899940000000     0.523330000000     0.0515682  
H34      H      0.703850000000     0.871390000000     0.523610000000     0.0514162  
H35      H      0.703850000000     0.871390000000     0.477770000000     0.0513846  
H36      H      0.779260000000     0.899940000000     0.478050000000     0.0515858  
H37      H      0.782450000000     0.971910000000     0.624160000000     0.0514465  
H38      H      0.707070000000     0.972180000000     0.595530000000     0.0516181  
H39      H      0.707070000000     0.017450000000     0.595530000000     0.051566   
H40      H      0.782450000000     0.017730000000     0.624160000000     0.0513777  
H41      H      0.859730000000     0.160520000000     0.624670000000     0.051825   
H42      H      0.803670000000     0.216350000000     0.609160000000     0.0509693  
H43      H      0.771570000000     0.184240000000     0.609170000000     0.0509948  
H44      H      0.827410000000     0.128200000000     0.624670000000     0.0518372  
H45      H      0.970480000000     0.280860000000     0.595520000000     0.0515708  
H46      H      0.970200000000     0.205490000000     0.624150000000     0.0514092  
H47      H      0.016030000000     0.205480000000     0.624140000000     0.0514117  
H48      H      0.015760000000     0.280850000000     0.595510000000     0.0515815  
H49      H      0.859780000000     0.160500000000     0.376680000000     0.0518006  
H50      H      0.803720000000     0.216330000000     0.392150000000     0.0509467  
H51      H      0.771620000000     0.184230000000     0.392150000000     0.0510128  
H52      H      0.827470000000     0.128180000000     0.376680000000     0.0518662  
H53      H      0.898280000000     0.208680000000     0.478020000000     0.0515379  
H54      H      0.869710000000     0.284070000000     0.477740000000     0.0514266  
H55      H      0.869690000000     0.284080000000     0.523570000000     0.0514254  
H56      H      0.898270000000     0.208680000000     0.523310000000     0.0515708  
H57      H      0.970520000000     0.280860000000     0.405800000000     0.0515431  
H58      H      0.970240000000     0.205480000000     0.377180000000     0.0514039  
H59      H      0.016070000000     0.205480000000     0.377180000000     0.0514674  
H60      H      0.015800000000     0.280860000000     0.405800000000     0.0515882  
H61      H      0.088010000000     0.208670000000     0.478000000000     0.0515693  
H62      H      0.116600000000     0.284060000000     0.477740000000     0.051424   
H63      H      0.116580000000     0.284060000000     0.523570000000     0.0514051  
H64      H      0.087990000000     0.208680000000     0.523290000000     0.0515625  
H65      H      0.214650000000     0.184210000000     0.609130000000     0.0510012  
H66      H      0.158800000000     0.128160000000     0.624580000000     0.0518669  
H67      H      0.126480000000     0.160480000000     0.624610000000     0.0518121  
H68      H      0.182550000000     0.216320000000     0.609160000000     0.0509608  
H69      H      0.271520000000     0.103200000000     0.690070000000     0.051018   
H70      H      0.327350000000     0.118750000000     0.634010000000     0.0518699  
H71      H      0.359670000000     0.118760000000     0.666330000000     0.0517985  
H72      H      0.303630000000     0.103220000000     0.722190000000     0.0509549  
H73      H      0.327390000000     0.870870000000     0.633970000000     0.0518187  
H74      H      0.271550000000     0.886350000000     0.690040000000     0.0509915  
H75      H      0.303650000000     0.886360000000     0.722160000000     0.0509634  
H76      H      0.359710000000     0.870880000000     0.666300000000     0.0518436  
H77      H      0.279170000000     0.972150000000     0.595420000000     0.0516044  
H78      H      0.203780000000     0.971860000000     0.624020000000     0.0514111  
H79      H      0.203770000000     0.017690000000     0.624030000000     0.0514173  
H80      H      0.279170000000     0.017420000000     0.595430000000     0.0515493  
H81      H      0.282400000000     0.871380000000     0.477640000000     0.0514662  
H82      H      0.206990000000     0.899920000000     0.477920000000     0.0515936  
H83      H      0.206990000000     0.899910000000     0.523200000000     0.051546   
H84      H      0.282410000000     0.871370000000     0.523470000000     0.0513641  
H85      H      0.158860000000     0.128190000000     0.376600000000     0.0518035  
H86      H      0.214710000000     0.184230000000     0.392100000000     0.0509905  
H87      H      0.182600000000     0.216340000000     0.392120000000     0.0510047  
H88      H      0.126540000000     0.160510000000     0.376620000000     0.0518301  
H89      H      0.279200000000     0.017440000000     0.405730000000     0.0515753  
H90      H      0.203820000000     0.017730000000     0.377080000000     0.0513867  
H91      H      0.203810000000     0.971910000000     0.377080000000     0.0514269  
H92      H      0.279190000000     0.972160000000     0.405730000000     0.0515776  
H93      H      0.207010000000     0.089670000000     0.477930000000     0.051545   
H94      H      0.282430000000     0.118210000000     0.477680000000     0.0513993  
H95      H      0.282410000000     0.118210000000     0.523520000000     0.0514335  
H96      H      0.207000000000     0.089670000000     0.523220000000     0.0515962  
H97      H      0.970460000000     0.589680000000     0.714530000000     0.0515726  
H98      H      0.970200000000     0.618210000000     0.789960000000     0.0514153  
H99      H      0.016030000000     0.618210000000     0.789940000000     0.0514427  
H100     H      0.015730000000     0.589680000000     0.714510000000     0.0515926  
H101     H      0.869150000000     0.361410000000     0.666340000000     0.0518334  
H102     H      0.884630000000     0.305390000000     0.722230000000     0.0509908  
H103     H      0.884640000000     0.273270000000     0.690130000000     0.05095    
H104     H      0.869150000000     0.329070000000     0.634030000000     0.0518308  
H105     H      0.869680000000     0.471920000000     0.711300000000     0.0514119  
H106     H      0.898230000000     0.472190000000     0.786730000000     0.0515935  
H107     H      0.898230000000     0.517460000000     0.786740000000     0.0515471  
H108     H      0.869680000000     0.517740000000     0.711310000000     0.0514171  
H109     H      0.117070000000     0.361380000000     0.666340000000     0.0518266  
H110     H      0.101560000000     0.305360000000     0.722230000000     0.0509803  
H111     H      0.101570000000     0.273240000000     0.690130000000     0.050974   
H112     H      0.117080000000     0.329050000000     0.634030000000     0.0518146  
H113     H      0.970180000000     0.371420000000     0.789960000000     0.0514215  
H114     H      0.970450000000     0.399940000000     0.714520000000     0.0515899  
H115     H      0.015730000000     0.399930000000     0.714520000000     0.0515625  
H116     H      0.016000000000     0.371410000000     0.789960000000     0.0514053  
H117     H      0.087960000000     0.472170000000     0.786710000000     0.0515797  
H118     H      0.116510000000     0.471880000000     0.711280000000     0.0514139  
H119     H      0.116520000000     0.517700000000     0.711280000000     0.0514271  
H120     H      0.087960000000     0.517440000000     0.786700000000     0.0515924  
H121     H      0.182560000000     0.773280000000     0.392030000000     0.0509463  
H122     H      0.126490000000     0.829120000000     0.376600000000     0.0517883  
H123     H      0.158810000000     0.861440000000     0.376590000000     0.0518419  
H124     H      0.214670000000     0.805390000000     0.392020000000     0.0510054  
H125     H      0.803680000000     0.773270000000     0.392170000000     0.0510214  
H126     H      0.859740000000     0.829090000000     0.376670000000     0.051878   
H127     H      0.827430000000     0.861420000000     0.376680000000     0.0517859  
H128     H      0.771580000000     0.805380000000     0.392180000000     0.0509669  
H129     H      0.970190000000     0.784120000000     0.377140000000     0.0513572  
H130     H      0.970490000000     0.708750000000     0.405790000000     0.0515432  
H131     H      0.015760000000     0.708750000000     0.405770000000     0.0515913  
H132     H      0.016020000000     0.784120000000     0.377130000000     0.0514625  
H133     H      0.182570000000     0.773250000000     0.609080000000     0.0509789  
H134     H      0.126510000000     0.829080000000     0.624580000000     0.0518128  
H135     H      0.158830000000     0.861400000000     0.624570000000     0.0518168  
H136     H      0.214680000000     0.805360000000     0.609070000000     0.0509693  
H137     H      0.101600000000     0.716340000000     0.690070000000     0.0509272  
H138     H      0.117060000000     0.660520000000     0.633980000000     0.0517939  
H139     H      0.117050000000     0.628190000000     0.666290000000     0.0518641  
H140     H      0.101590000000     0.684230000000     0.722170000000     0.0510199  
H141     H      0.088000000000     0.780920000000     0.523240000000     0.051582   
H142     H      0.116570000000     0.705530000000     0.523500000000     0.0514032  
H143     H      0.116570000000     0.705540000000     0.477660000000     0.0514383  
H144     H      0.088000000000     0.780930000000     0.477950000000     0.0515732  
H145     H      0.803690000000     0.773290000000     0.609200000000     0.0509867  
H146     H      0.859760000000     0.829120000000     0.624650000000     0.0518359  
H147     H      0.827440000000     0.861440000000     0.624660000000     0.0518492  
H148     H      0.771580000000     0.805390000000     0.609210000000     0.0509745  
H149     H      0.884690000000     0.716380000000     0.690130000000     0.0509815  
H150     H      0.869140000000     0.660570000000     0.634050000000     0.0518283  
H151     H      0.869130000000     0.628240000000     0.666360000000     0.0518354  
H152     H      0.884680000000     0.684260000000     0.722240000000     0.0509728  
H153     H      0.869670000000     0.705540000000     0.523580000000     0.051393   
H154     H      0.898250000000     0.780930000000     0.523290000000     0.0515835  
H155     H      0.898250000000     0.780920000000     0.478010000000     0.0516014  
H156     H      0.869680000000     0.705530000000     0.477740000000     0.0514519  
H157     H      0.970480000000     0.708750000000     0.595480000000     0.0516217  
H158     H      0.970220000000     0.784120000000     0.624110000000     0.0514761  
H159     H      0.016050000000     0.784120000000     0.624100000000     0.0513563  
H160     H      0.015750000000     0.708740000000     0.595470000000     0.0515139  
H161     H      0.158820000000     0.370890000000     0.867250000000     0.0518224  
H162     H      0.214650000000     0.386380000000     0.811170000000     0.0509869  
H163     H      0.182540000000     0.386370000000     0.779060000000     0.0509877  
H164     H      0.126500000000     0.370880000000     0.834930000000     0.0518325  
H165     H      0.279230000000     0.399970000000     0.978000000000     0.0515694  
H166     H      0.203820000000     0.371420000000     0.977730000000     0.0514396  
H167     H      0.203830000000     0.371430000000     0.023570000000     0.0513995  
H168     H      0.279240000000     0.399970000000     0.023280000000     0.0515555  
H169     H      0.282440000000     0.517770000000     0.124100000000     0.0513773  
H170     H      0.207050000000     0.517480000000     0.095480000000     0.0515235  
H171     H      0.207060000000     0.472210000000     0.095490000000     0.0516226  
H172     H      0.282440000000     0.471950000000     0.124110000000     0.0514416  
H173     H      0.214670000000     0.603240000000     0.811130000000     0.0510163  
H174     H      0.158840000000     0.618780000000     0.867200000000     0.0518384  
H175     H      0.126520000000     0.618770000000     0.834880000000     0.0518247  
H176     H      0.182560000000     0.603230000000     0.779020000000     0.0509444  
H177     H      0.282430000000     0.517740000000     0.877160000000     0.0514017  
H178     H      0.207040000000     0.517470000000     0.905780000000     0.0515468  
H179     H      0.207040000000     0.472200000000     0.905780000000     0.0515825  
H180     H      0.282430000000     0.471920000000     0.877170000000     0.0514025  
H181     H      0.279230000000     0.589720000000     0.977970000000     0.0515892  
H182     H      0.203820000000     0.618260000000     0.977690000000     0.051443   
H183     H      0.203820000000     0.618260000000     0.023530000000     0.0514131  
H184     H      0.279230000000     0.589720000000     0.023260000000     0.0515533  
H185     H      0.126490000000     0.618740000000     0.166320000000     0.0518051  
H186     H      0.182530000000     0.603260000000     0.222200000000     0.0509767  
H187     H      0.214650000000     0.603280000000     0.190090000000     0.0509922  
H188     H      0.158820000000     0.618760000000     0.134010000000     0.0518344  
H189     H      0.101530000000     0.684230000000     0.279020000000     0.050976   
H190     H      0.117080000000     0.628230000000     0.334900000000     0.0518114  
H191     H      0.117090000000     0.660560000000     0.367210000000     0.0518355  
H192     H      0.101540000000     0.716360000000     0.311120000000     0.0509844  
H193     H      0.869150000000     0.628190000000     0.334970000000     0.0517767  
H194     H      0.884620000000     0.684220000000     0.279080000000     0.0509638  
H195     H      0.884630000000     0.716340000000     0.311180000000     0.0509982  
H196     H      0.869160000000     0.660530000000     0.367280000000     0.0518849  
H197     H      0.970160000000     0.618180000000     0.211320000000     0.0514057  
H198     H      0.970460000000     0.589660000000     0.286760000000     0.0515783  
H199     H      0.015730000000     0.589660000000     0.286750000000     0.0515612  
H200     H      0.015990000000     0.618180000000     0.211310000000     0.0514268  
H201     H      0.884690000000     0.273240000000     0.311180000000     0.0509518  
H202     H      0.869190000000     0.329050000000     0.367270000000     0.0518114  
H203     H      0.869170000000     0.361380000000     0.334950000000     0.0518552  
H204     H      0.884680000000     0.305360000000     0.279080000000     0.0510272  
H205     H      0.898240000000     0.472160000000     0.214570000000     0.0515984  
H206     H      0.869690000000     0.471870000000     0.290000000000     0.0514158  
H207     H      0.869680000000     0.517690000000     0.290000000000     0.0514009  
H208     H      0.898220000000     0.517430000000     0.214570000000     0.0515816  
H209     H      0.117090000000     0.361400000000     0.334960000000     0.0518014  
H210     H      0.101600000000     0.305370000000     0.279080000000     0.05099    
H211     H      0.101610000000     0.273250000000     0.311180000000     0.050981   
H212     H      0.117100000000     0.329070000000     0.367270000000     0.0518047  
H213     H      0.182570000000     0.386400000000     0.222240000000     0.0509835  
H214     H      0.126540000000     0.370860000000     0.166370000000     0.0518299  
H215     H      0.158870000000     0.370870000000     0.134050000000     0.0518274  
H216     H      0.214690000000     0.386420000000     0.190130000000     0.0509748  
H217     H      0.016040000000     0.371390000000     0.211340000000     0.0514406  
H218     H      0.015760000000     0.399930000000     0.286770000000     0.0515727  
H219     H      0.970480000000     0.399930000000     0.286760000000     0.051573   
H220     H      0.970210000000     0.371390000000     0.211330000000     0.0513998  
H221     H      0.116520000000     0.471900000000     0.289980000000     0.0514229  
H222     H      0.087970000000     0.472150000000     0.214550000000     0.0515592  
H223     H      0.087970000000     0.517430000000     0.214550000000     0.0515727  
H224     H      0.116510000000     0.517720000000     0.289970000000     0.0513999  
H225     H      0.601520000000     0.216410000000     0.811130000000     0.0509906  
H226     H      0.617050000000     0.160610000000     0.867230000000     0.0518729  
H227     H      0.617040000000     0.128270000000     0.834920000000     0.0518209  
H228     H      0.601520000000     0.184280000000     0.779040000000     0.050983   
H229     H      0.616540000000     0.205580000000     0.977680000000     0.0513972  
H230     H      0.587960000000     0.280970000000     0.977970000000     0.0515421  
H231     H      0.587980000000     0.280960000000     0.023260000000     0.051597   
H232     H      0.616560000000     0.205570000000     0.023520000000     0.0514352  
H233     H      0.327440000000     0.361490000000     0.124610000000     0.0518268  
H234     H      0.271580000000     0.305430000000     0.109170000000     0.0509819  
H235     H      0.303690000000     0.273330000000     0.109160000000     0.0509796  
H236     H      0.359760000000     0.329170000000     0.124600000000     0.0518214  
H237     H      0.470490000000     0.208800000000     0.095470000000     0.0515809  
H238     H      0.470230000000     0.284180000000     0.124080000000     0.0514256  
H239     H      0.516060000000     0.284160000000     0.124090000000     0.0514338  
H240     H      0.515770000000     0.208790000000     0.095470000000     0.0516083  
H241     H      0.303640000000     0.273300000000     0.892130000000     0.0510042  
H242     H      0.359700000000     0.329130000000     0.876610000000     0.0518367  
H243     H      0.327390000000     0.361450000000     0.876630000000     0.0517906  
H244     H      0.271540000000     0.305410000000     0.892140000000     0.0509788  
H245     H      0.384590000000     0.216380000000     0.811140000000     0.0509875  
H246     H      0.369130000000     0.160560000000     0.867240000000     0.0518136  
H247     H      0.369120000000     0.128230000000     0.834930000000     0.0518077  
H248     H      0.384590000000     0.184260000000     0.779040000000     0.0509735  
H249     H      0.369650000000     0.205580000000     0.977700000000     0.0514017  
H250     H      0.398240000000     0.280970000000     0.977960000000     0.0515266  
H251     H      0.398250000000     0.280970000000     0.023240000000     0.0515838  
H252     H      0.369660000000     0.205590000000     0.023540000000     0.0514306  
H253     H      0.470160000000     0.284160000000     0.877120000000     0.0514309  
H254     H      0.470450000000     0.208790000000     0.905750000000     0.0515598  
H255     H      0.515720000000     0.208800000000     0.905750000000     0.0516109  
H256     H      0.515990000000     0.284170000000     0.877120000000     0.0514047  
H257     H      0.359730000000     0.870890000000     0.334860000000     0.051811   
H258     H      0.303710000000     0.886440000000     0.278980000000     0.0510038  
H259     H      0.271580000000     0.886420000000     0.311080000000     0.0509645  
H260     H      0.327390000000     0.870870000000     0.367170000000     0.0518361  
H261     H      0.359770000000     0.118770000000     0.334890000000     0.0518411  
H262     H      0.303740000000     0.103290000000     0.279010000000     0.0509922  
H263     H      0.271620000000     0.103280000000     0.311110000000     0.0509596  
H264     H      0.327430000000     0.118760000000     0.367210000000     0.051798   
H265     H      0.369210000000     0.128280000000     0.166310000000     0.0518371  
H266     H      0.384730000000     0.184300000000     0.222190000000     0.0509762  
H267     H      0.384710000000     0.216420000000     0.190090000000     0.0509482  
H268     H      0.369190000000     0.160610000000     0.134000000000     0.0518029  
H269     H      0.398310000000     0.017500000000     0.286680000000     0.0516158  
H270     H      0.369780000000     0.017780000000     0.211250000000     0.0514155  
H271     H      0.369780000000     0.971960000000     0.211250000000     0.051423   
H272     H      0.398310000000     0.972220000000     0.286680000000     0.0515663  
H273     H      0.617120000000     0.128240000000     0.166310000000     0.0517869  
H274     H      0.601660000000     0.184270000000     0.222190000000     0.0509687  
H275     H      0.601640000000     0.216390000000     0.190080000000     0.0509935  
H276     H      0.617100000000     0.160570000000     0.133990000000     0.0518578  
H277     H      0.626590000000     0.118790000000     0.334910000000     0.0518523  
H278     H      0.682640000000     0.103260000000     0.279060000000     0.0510131  
H279     H      0.714750000000     0.103240000000     0.311170000000     0.0509528  
H280     H      0.658910000000     0.118770000000     0.367240000000     0.0518263  
H281     H      0.515830000000     0.089720000000     0.214500000000     0.0515635  
H282     H      0.516110000000     0.118260000000     0.289930000000     0.0513786  
H283     H      0.470280000000     0.118260000000     0.289930000000     0.0514433  
H284     H      0.470560000000     0.089730000000     0.214490000000     0.0515821  
H285     H      0.626550000000     0.870900000000     0.334950000000     0.0518237  
H286     H      0.682610000000     0.886380000000     0.279090000000     0.0509804  
H287     H      0.714710000000     0.886370000000     0.311210000000     0.051004   
H288     H      0.658870000000     0.870890000000     0.367280000000     0.0518356  
H289     H      0.516060000000     0.871470000000     0.289960000000     0.0513993  
H290     H      0.515810000000     0.899980000000     0.214520000000     0.0515746  
H291     H      0.470540000000     0.899980000000     0.214500000000     0.0515744  
H292     H      0.470230000000     0.871470000000     0.289940000000     0.051416   
H293     H      0.588030000000     0.972220000000     0.286720000000     0.0515399  
H294     H      0.616610000000     0.971920000000     0.211310000000     0.0513784  
H295     H      0.616620000000     0.017750000000     0.211300000000     0.0514618  
H296     H      0.588040000000     0.017490000000     0.286720000000     0.0516237  
H297     H      0.827340000000     0.618780000000     0.134070000000     0.0518193  
H298     H      0.771520000000     0.603230000000     0.190140000000     0.0509623  
H299     H      0.803630000000     0.603220000000     0.222250000000     0.0509837  
H300     H      0.859670000000     0.618760000000     0.166390000000     0.0518476  
H301     H      0.771540000000     0.603300000000     0.811180000000     0.0509719  
H302     H      0.827370000000     0.618780000000     0.867260000000     0.0518309  
H303     H      0.859700000000     0.618770000000     0.834950000000     0.0517935  
H304     H      0.803660000000     0.603290000000     0.779080000000     0.0509979  
H305     H      0.782370000000     0.618280000000     0.977750000000     0.0514282  
H306     H      0.706960000000     0.589720000000     0.978010000000     0.0515628  
H307     H      0.706960000000     0.589710000000     0.023300000000     0.0515704  
H308     H      0.782370000000     0.618270000000     0.023580000000     0.0513863  
H309     H      0.658830000000     0.361440000000     0.124640000000     0.0518436  
H310     H      0.714680000000     0.305410000000     0.109100000000     0.0509946  
H311     H      0.682580000000     0.273300000000     0.109100000000     0.0509956  
H312     H      0.626520000000     0.329120000000     0.124630000000     0.0518344  
H313     H      0.827400000000     0.370890000000     0.134030000000     0.0518326  
H314     H      0.771560000000     0.386360000000     0.190110000000     0.0509905  
H315     H      0.803670000000     0.386340000000     0.222220000000     0.0509944  
H316     H      0.859720000000     0.370880000000     0.166350000000     0.0518134  
H317     H      0.779170000000     0.472210000000     0.095510000000     0.051591   
H318     H      0.703780000000     0.471910000000     0.124120000000     0.0514392  
H319     H      0.703760000000     0.517730000000     0.124120000000     0.0513745  
H320     H      0.779160000000     0.517480000000     0.095510000000     0.0515444  
H321     H      0.827340000000     0.370900000000     0.867240000000     0.0518071  
H322     H      0.771520000000     0.386430000000     0.811150000000     0.0509526  
H323     H      0.803640000000     0.386420000000     0.779050000000     0.0509857  
H324     H      0.859670000000     0.370890000000     0.834920000000     0.0518128  
H325     H      0.682520000000     0.273330000000     0.892080000000     0.0509641  
H326     H      0.626450000000     0.329170000000     0.876640000000     0.0517971  
H327     H      0.658770000000     0.361490000000     0.876650000000     0.0518382  
H328     H      0.714620000000     0.305440000000     0.892090000000     0.0509991  
H329     H      0.706970000000     0.399980000000     0.978000000000     0.0516072  
H330     H      0.782380000000     0.371440000000     0.977700000000     0.0514346  
H331     H      0.782390000000     0.371430000000     0.023540000000     0.0514329  
H332     H      0.706980000000     0.399980000000     0.023290000000     0.0515657  
H333     H      0.779140000000     0.472220000000     0.905790000000     0.0515673  
H334     H      0.703750000000     0.471960000000     0.877170000000     0.0513984  
H335     H      0.703760000000     0.517780000000     0.877180000000     0.0514614  
H336     H      0.779150000000     0.517490000000     0.905790000000     0.051595   
H337     H      0.359710000000     0.660550000000     0.124610000000     0.0518432  
H338     H      0.303650000000     0.716390000000     0.109130000000     0.0509743  
H339     H      0.271550000000     0.684280000000     0.109130000000     0.0509628  
H340     H      0.327400000000     0.628230000000     0.124610000000     0.0517796  
H341     H      0.384640000000     0.773310000000     0.190080000000     0.0509587  
H342     H      0.369170000000     0.829120000000     0.133980000000     0.0518202  
H343     H      0.369200000000     0.861460000000     0.166290000000     0.0518118  
H344     H      0.384670000000     0.805430000000     0.222170000000     0.0509984  
H345     H      0.384650000000     0.773280000000     0.811130000000     0.051025   
H346     H      0.369120000000     0.829090000000     0.867210000000     0.0518562  
H347     H      0.369120000000     0.861420000000     0.834890000000     0.0518041  
H348     H      0.384650000000     0.805390000000     0.779020000000     0.0509499  
H349     H      0.359720000000     0.660530000000     0.876620000000     0.0518455  
H350     H      0.303650000000     0.716370000000     0.892090000000     0.0510038  
H351     H      0.271550000000     0.684260000000     0.892090000000     0.0509669  
H352     H      0.327410000000     0.628210000000     0.876620000000     0.0517719  
H353     H      0.398220000000     0.708720000000     0.977970000000     0.0515937  
H354     H      0.369640000000     0.784110000000     0.977690000000     0.0514015  
H355     H      0.369650000000     0.784110000000     0.023530000000     0.0514374  
H356     H      0.398220000000     0.708720000000     0.023250000000     0.0515692  
H357     H      0.601560000000     0.773290000000     0.190140000000     0.0510108  
H358     H      0.617100000000     0.829090000000     0.134050000000     0.0518447  
H359     H      0.617120000000     0.861420000000     0.166360000000     0.0518163  
H360     H      0.601580000000     0.805410000000     0.222240000000     0.0509745  
H361     H      0.682530000000     0.716370000000     0.109200000000     0.0509856  
H362     H      0.626460000000     0.660530000000     0.124650000000     0.0518254  
H363     H      0.658770000000     0.628210000000     0.124650000000     0.0518076  
H364     H      0.714630000000     0.684260000000     0.109190000000     0.0509895  
H365     H      0.516000000000     0.705530000000     0.124140000000     0.0514276  
H366     H      0.515740000000     0.780900000000     0.095500000000     0.0515964  
H367     H      0.470460000000     0.780900000000     0.095480000000     0.0515845  
H368     H      0.470170000000     0.705530000000     0.124120000000     0.0514323  
H369     H      0.617040000000     0.829120000000     0.867290000000     0.0517762  
H370     H      0.601570000000     0.773300000000     0.811190000000     0.0509256  
H371     H      0.601560000000     0.805420000000     0.779090000000     0.0510017  
H372     H      0.617030000000     0.861450000000     0.834970000000     0.0518313  
H373     H      0.626480000000     0.660560000000     0.876670000000     0.0518123  
H374     H      0.682540000000     0.716390000000     0.892160000000     0.0509735  
H375     H      0.714640000000     0.684290000000     0.892160000000     0.0509663  
H376     H      0.658800000000     0.628240000000     0.876670000000     0.0518399  
H377     H      0.515730000000     0.780900000000     0.905790000000     0.0515627  
H378     H      0.516010000000     0.705530000000     0.877170000000     0.0514081  
H379     H      0.470190000000     0.705530000000     0.877150000000     0.05144    
H380     H      0.470450000000     0.780900000000     0.905780000000     0.0515844  
H381     H      0.616540000000     0.784120000000     0.977750000000     0.051409   
H382     H      0.587960000000     0.708730000000     0.978020000000     0.0515801  
H383     H      0.587960000000     0.708720000000     0.023310000000     0.0515568  
H384     H      0.616540000000     0.784110000000     0.023590000000     0.0514412  
In1      In     0.597140000000     0.744830000000     0.896590000000     2.43222    
In2      In     0.597150000000     0.744820000000     0.104740000000     2.43146    
In3      In     0.389040000000     0.744810000000     0.896540000000     2.4317     
In4      In     0.389040000000     0.744830000000     0.104680000000     2.43166    
In5      In     0.743060000000     0.390820000000     0.896560000000     2.43152    
In6      In     0.743100000000     0.390800000000     0.104710000000     2.43164    
In7      In     0.743070000000     0.598900000000     0.896590000000     2.43205    
In8      In     0.743060000000     0.598870000000     0.104730000000     2.43164    
In9      In     0.597210000000     0.890810000000     0.250650000000     2.43205    
In10     In     0.597240000000     0.098880000000     0.250610000000     2.43186    
In11     In     0.389140000000     0.098900000000     0.250590000000     2.43117    
In12     In     0.389110000000     0.890830000000     0.250580000000     2.43196    
In13     In     0.389030000000     0.244850000000     0.896540000000     2.43182    
In14     In     0.389080000000     0.244890000000     0.104680000000     2.43209    
In15     In     0.597130000000     0.244890000000     0.896540000000     2.43142    
In16     In     0.597180000000     0.244850000000     0.104680000000     2.43152    
In17     In     0.097170000000     0.390760000000     0.250670000000     2.43193    
In18     In     0.889070000000     0.390750000000     0.250660000000     2.43145    
In19     In     0.889040000000     0.598830000000     0.250670000000     2.43179    
In20     In     0.097140000000     0.598840000000     0.250620000000     2.43186    
In21     In     0.243130000000     0.598870000000     0.896540000000     2.43201    
In22     In     0.243120000000     0.598890000000     0.104690000000     2.43187    
In23     In     0.243150000000     0.390810000000     0.104720000000     2.43157    
In24     In     0.243120000000     0.390800000000     0.896580000000     2.43206    
In25     In     0.889070000000     0.744840000000     0.604730000000     2.43189    
In26     In     0.097180000000     0.744810000000     0.604660000000     2.4325     
In27     In     0.889070000000     0.744820000000     0.396580000000     2.43176    
In28     In     0.097170000000     0.744840000000     0.396520000000     2.43188    
In29     In     0.097140000000     0.390760000000     0.750630000000     2.43172    
In30     In     0.889040000000     0.390790000000     0.750630000000     2.43165    
In31     In     0.889050000000     0.598860000000     0.750650000000     2.43176    
In32     In     0.097150000000     0.598840000000     0.750600000000     2.43175    
In33     In     0.243140000000     0.098850000000     0.396510000000     2.432      
In34     In     0.243100000000     0.890770000000     0.396490000000     2.43152    
In35     In     0.243100000000     0.890750000000     0.604630000000     2.43211    
In36     In     0.243080000000     0.098820000000     0.604660000000     2.43186    
In37     In     0.097210000000     0.244770000000     0.396580000000     2.43158    
In38     In     0.889110000000     0.244780000000     0.396590000000     2.43204    
In39     In     0.889070000000     0.244790000000     0.604730000000     2.43178    
In40     In     0.097170000000     0.244770000000     0.604720000000     2.43145    
In41     In     0.743160000000     0.890780000000     0.604760000000     2.43202    
In42     In     0.743140000000     0.098850000000     0.604740000000     2.43174    
In43     In     0.743180000000     0.098840000000     0.396590000000     2.43165    
In44     In     0.743160000000     0.890770000000     0.396620000000     2.43149    
In45     In     0.389040000000     0.890790000000     0.750610000000     2.43183    
In46     In     0.389020000000     0.098860000000     0.750630000000     2.43209    
In47     In     0.597140000000     0.890810000000     0.750670000000     2.43181    
In48     In     0.597120000000     0.098880000000     0.750640000000     2.43184    
O1       O      0.592470000000     0.727830000000     0.934900000000    -0.500461   
O2       O      0.607960000000     0.764340000000     0.933250000000    -0.472606   
O3       O      0.609430000000     0.705760000000     0.884450000000    -0.47734    
O4       O      0.560500000000     0.725310000000     0.885770000000    -0.472784   
O5       O      0.609280000000     0.783900000000     0.884320000000    -0.477504   
O6       O      0.558840000000     0.761810000000     0.901270000000    -0.500867   
O7       O      0.637430000000     0.732140000000     0.894350000000    -0.49948    
O8       O      0.599380000000     0.757540000000     0.856310000000    -0.499842   
O9       O      0.599380000000     0.757530000000     0.145030000000    -0.499544   
O10      O      0.609300000000     0.783890000000     0.117010000000    -0.477249   
O11      O      0.609420000000     0.705740000000     0.116890000000    -0.47719    
O12      O      0.560500000000     0.725300000000     0.115560000000    -0.472355   
O13      O      0.607960000000     0.764340000000     0.068090000000    -0.472479   
O14      O      0.558850000000     0.761810000000     0.100050000000    -0.500356   
O15      O      0.637430000000     0.732110000000     0.106990000000    -0.49965    
O16      O      0.592480000000     0.727820000000     0.066430000000    -0.500319   
O17      O      0.386820000000     0.757520000000     0.856240000000    -0.499346   
O18      O      0.376900000000     0.783880000000     0.884260000000    -0.47725    
O19      O      0.376770000000     0.705740000000     0.884390000000    -0.477142   
O20      O      0.425690000000     0.725300000000     0.885730000000    -0.472596   
O21      O      0.378230000000     0.764330000000     0.933190000000    -0.472614   
O22      O      0.427340000000     0.761810000000     0.901230000000    -0.500326   
O23      O      0.348760000000     0.732120000000     0.894290000000    -0.499555   
O24      O      0.393700000000     0.727810000000     0.934850000000    -0.50034    
O25      O      0.393720000000     0.727820000000     0.066370000000    -0.500167   
O26      O      0.378230000000     0.764340000000     0.068030000000    -0.472516   
O27      O      0.376760000000     0.705760000000     0.116830000000    -0.477396   
O28      O      0.425690000000     0.725300000000     0.115510000000    -0.47228    
O29      O      0.376920000000     0.783900000000     0.116950000000    -0.477528   
O30      O      0.427350000000     0.761810000000     0.100000000000    -0.50035    
O31      O      0.348760000000     0.732130000000     0.106930000000    -0.499747   
O32      O      0.386810000000     0.757540000000     0.144970000000    -0.499558   
O33      O      0.726060000000     0.395480000000     0.934870000000    -0.500277   
O34      O      0.762590000000     0.380010000000     0.933210000000    -0.472369   
O35      O      0.703980000000     0.378540000000     0.884420000000    -0.477264   
O36      O      0.723530000000     0.427470000000     0.885750000000    -0.472223   
O37      O      0.782130000000     0.378680000000     0.884280000000    -0.477354   
O38      O      0.760050000000     0.429120000000     0.901250000000    -0.500329   
O39      O      0.730360000000     0.350540000000     0.894310000000    -0.499543   
O40      O      0.755760000000     0.388600000000     0.856270000000    -0.499594   
O41      O      0.755810000000     0.388560000000     0.145000000000    -0.49949    
O42      O      0.782180000000     0.378660000000     0.116980000000    -0.477222   
O43      O      0.704040000000     0.378500000000     0.116860000000    -0.477502   
O44      O      0.723570000000     0.427430000000     0.115530000000    -0.47259    
O45      O      0.762620000000     0.380000000000     0.068050000000    -0.472465   
O46      O      0.760090000000     0.429100000000     0.100040000000    -0.500367   
O47      O      0.730420000000     0.350510000000     0.106930000000    -0.499362   
O48      O      0.726090000000     0.395470000000     0.066400000000    -0.50021    
O49      O      0.755780000000     0.601130000000     0.856300000000    -0.499632   
O50      O      0.782150000000     0.611030000000     0.884310000000    -0.47731    
O51      O      0.704000000000     0.611190000000     0.884440000000    -0.477273   
O52      O      0.723540000000     0.562260000000     0.885770000000    -0.472409   
O53      O      0.762590000000     0.609710000000     0.933240000000    -0.472526   
O54      O      0.760060000000     0.560600000000     0.901270000000    -0.500379   
O55      O      0.730390000000     0.639180000000     0.894350000000    -0.499502   
O56      O      0.726070000000     0.594230000000     0.934890000000    -0.500586   
O57      O      0.726060000000     0.594210000000     0.066420000000    -0.500441   
O58      O      0.762580000000     0.609690000000     0.068080000000    -0.472528   
O59      O      0.703980000000     0.611150000000     0.116880000000    -0.477133   
O60      O      0.723540000000     0.562220000000     0.115540000000    -0.472598   
O61      O      0.782130000000     0.611010000000     0.117020000000    -0.477273   
O62      O      0.760050000000     0.560580000000     0.100040000000    -0.500623   
O63      O      0.730370000000     0.639150000000     0.106990000000    -0.499545   
O64      O      0.755760000000     0.601080000000     0.145030000000    -0.499362   
O65      O      0.592550000000     0.929110000000     0.267630000000    -0.500673   
O66      O      0.608030000000     0.927440000000     0.231110000000    -0.472745   
O67      O      0.609490000000     0.878680000000     0.289730000000    -0.47729    
O68      O      0.560560000000     0.880020000000     0.270180000000    -0.47239    
O69      O      0.609350000000     0.878500000000     0.211570000000    -0.477295   
O70      O      0.558920000000     0.895480000000     0.233640000000    -0.500614   
O71      O      0.637500000000     0.888570000000     0.263340000000    -0.499366   
O72      O      0.599430000000     0.850520000000     0.237970000000    -0.499462   
O73      O      0.599480000000     0.139170000000     0.237920000000    -0.499569   
O74      O      0.609370000000     0.111180000000     0.211530000000    -0.477564   
O75      O      0.609530000000     0.111020000000     0.289690000000    -0.47723    
O76      O      0.560600000000     0.109690000000     0.270140000000    -0.472595   
O77      O      0.608050000000     0.062240000000     0.231080000000    -0.472472   
O78      O      0.558940000000     0.094220000000     0.233610000000    -0.50048    
O79      O      0.637530000000     0.101100000000     0.263300000000    -0.499356   
O80      O      0.592560000000     0.060590000000     0.267610000000    -0.500402   
O81      O      0.393810000000     0.060600000000     0.267590000000    -0.500309   
O82      O      0.378350000000     0.062260000000     0.231050000000    -0.472526   
O83      O      0.376840000000     0.111030000000     0.289680000000    -0.47706    
O84      O      0.425790000000     0.109700000000     0.270130000000    -0.472427   
O85      O      0.377000000000     0.111200000000     0.211520000000    -0.477396   
O86      O      0.427450000000     0.094240000000     0.233590000000    -0.500234   
O87      O      0.348850000000     0.101120000000     0.263280000000    -0.499426   
O88      O      0.386910000000     0.139190000000     0.237910000000    -0.499493   
O89      O      0.386880000000     0.850540000000     0.237900000000    -0.49937    
O90      O      0.376980000000     0.878530000000     0.211500000000    -0.477298   
O91      O      0.376810000000     0.878680000000     0.289650000000    -0.477338   
O92      O      0.425750000000     0.880030000000     0.270130000000    -0.472482   
O93      O      0.378330000000     0.927470000000     0.231040000000    -0.472692   
O94      O      0.427420000000     0.895480000000     0.233590000000    -0.500416   
O95      O      0.348820000000     0.888610000000     0.263260000000    -0.499641   
O96      O      0.393780000000     0.929120000000     0.267580000000    -0.500584   
O97      O      0.393710000000     0.261860000000     0.934840000000    -0.500441   
O98      O      0.378220000000     0.225350000000     0.933200000000    -0.472748   
O99      O      0.376750000000     0.283920000000     0.884380000000    -0.477184   
O100     O      0.425670000000     0.264380000000     0.885710000000    -0.472356   
O101     O      0.376890000000     0.205780000000     0.884270000000    -0.477434   
O102     O      0.427330000000     0.227870000000     0.901210000000    -0.500542   
O103     O      0.348740000000     0.257550000000     0.894300000000    -0.499426   
O104     O      0.386790000000     0.232140000000     0.856250000000    -0.499643   
O105     O      0.386860000000     0.232180000000     0.144970000000    -0.499757   
O106     O      0.376950000000     0.205820000000     0.116960000000    -0.47746    
O107     O      0.376810000000     0.283960000000     0.116830000000    -0.477217   
O108     O      0.425730000000     0.264410000000     0.115500000000    -0.472336   
O109     O      0.378260000000     0.225370000000     0.068030000000    -0.472569   
O110     O      0.427380000000     0.227900000000     0.099990000000    -0.500451   
O111     O      0.348800000000     0.257580000000     0.106940000000    -0.499608   
O112     O      0.393740000000     0.261880000000     0.066370000000    -0.500693   
O113     O      0.599360000000     0.232180000000     0.856240000000    -0.499191   
O114     O      0.609270000000     0.205810000000     0.884260000000    -0.477139   
O115     O      0.609410000000     0.283960000000     0.884400000000    -0.477435   
O116     O      0.560480000000     0.264400000000     0.885710000000    -0.472442   
O117     O      0.607950000000     0.225370000000     0.933190000000    -0.472578   
O118     O      0.558830000000     0.227890000000     0.901220000000    -0.500267   
O119     O      0.637410000000     0.257580000000     0.894280000000    -0.499721   
O120     O      0.592460000000     0.261880000000     0.934850000000    -0.500428   
O121     O      0.592510000000     0.261860000000     0.066380000000    -0.500413   
O122     O      0.607990000000     0.225340000000     0.068020000000    -0.472441   
O123     O      0.609470000000     0.283920000000     0.116840000000    -0.477142   
O124     O      0.560540000000     0.264380000000     0.115500000000    -0.472506   
O125     O      0.609330000000     0.205780000000     0.116950000000    -0.477335   
O126     O      0.558880000000     0.227860000000     0.100010000000    -0.500416   
O127     O      0.637470000000     0.257550000000     0.106910000000    -0.499416   
O128     O      0.599430000000     0.232140000000     0.144970000000    -0.499622   
O129     O      0.137460000000     0.388550000000     0.237980000000    -0.499436   
O130     O      0.109470000000     0.378630000000     0.211580000000    -0.477056   
O131     O      0.109310000000     0.378470000000     0.289740000000    -0.477549   
O132     O      0.107960000000     0.427410000000     0.270200000000    -0.472346   
O133     O      0.060530000000     0.379960000000     0.231130000000    -0.472521   
O134     O      0.092490000000     0.429050000000     0.233660000000    -0.500286   
O135     O      0.099410000000     0.350480000000     0.263350000000    -0.49982    
O136     O      0.058870000000     0.395420000000     0.267670000000    -0.500301   
O137     O      0.927370000000     0.395420000000     0.267660000000    -0.500435   
O138     O      0.925720000000     0.379950000000     0.231130000000    -0.472546   
O139     O      0.876940000000     0.378450000000     0.289740000000    -0.477234   
O140     O      0.878260000000     0.427390000000     0.270200000000    -0.472456   
O141     O      0.876780000000     0.378630000000     0.211570000000    -0.477212   
O142     O      0.893740000000     0.429050000000     0.233670000000    -0.500417   
O143     O      0.886840000000     0.350460000000     0.263340000000    -0.499396   
O144     O      0.848780000000     0.388520000000     0.237970000000    -0.499409   
O145     O      0.848750000000     0.601050000000     0.237990000000    -0.499492   
O146     O      0.876740000000     0.610970000000     0.211600000000    -0.477409   
O147     O      0.876910000000     0.611120000000     0.289760000000    -0.477159   
O148     O      0.878240000000     0.562180000000     0.270210000000    -0.472289   
O149     O      0.925680000000     0.609620000000     0.231130000000    -0.47273    
O150     O      0.893700000000     0.560530000000     0.233670000000    -0.500422   
O151     O      0.886810000000     0.639110000000     0.263360000000    -0.499575   
O152     O      0.927340000000     0.594170000000     0.267670000000    -0.500513   
O153     O      0.058840000000     0.594170000000     0.267630000000    -0.500461   
O154     O      0.060480000000     0.609620000000     0.231090000000    -0.472544   
O155     O      0.109280000000     0.611140000000     0.289700000000    -0.477167   
O156     O      0.107940000000     0.562200000000     0.270170000000    -0.472462   
O157     O      0.109420000000     0.610970000000     0.211540000000    -0.477325   
O158     O      0.092480000000     0.560530000000     0.233640000000    -0.500566   
O159     O      0.099360000000     0.639120000000     0.263300000000    -0.499634   
O160     O      0.137420000000     0.601070000000     0.237930000000    -0.499795   
O161     O      0.260130000000     0.594220000000     0.934850000000    -0.500382   
O162     O      0.223600000000     0.609690000000     0.933200000000    -0.472301   
O163     O      0.282200000000     0.611160000000     0.884400000000    -0.477396   
O164     O      0.262650000000     0.562230000000     0.885740000000    -0.472764   
O165     O      0.204050000000     0.611010000000     0.884260000000    -0.477056   
O166     O      0.226140000000     0.560580000000     0.901230000000    -0.500722   
O167     O      0.255810000000     0.639150000000     0.894290000000    -0.499601   
O168     O      0.230430000000     0.601080000000     0.856250000000    -0.499509   
O169     O      0.230410000000     0.601110000000     0.144980000000    -0.499603   
O170     O      0.204040000000     0.611010000000     0.116970000000    -0.477517   
O171     O      0.282190000000     0.611180000000     0.116840000000    -0.477397   
O172     O      0.262650000000     0.562250000000     0.115510000000    -0.472447   
O173     O      0.223600000000     0.609700000000     0.068030000000    -0.472525   
O174     O      0.226140000000     0.560590000000     0.100010000000    -0.500535   
O175     O      0.255810000000     0.639170000000     0.106940000000    -0.499728   
O176     O      0.260120000000     0.594230000000     0.066380000000    -0.500619   
O177     O      0.260140000000     0.395470000000     0.066410000000    -0.50062    
O178     O      0.223620000000     0.380000000000     0.068070000000    -0.472489   
O179     O      0.282230000000     0.378530000000     0.116860000000    -0.477185   
O180     O      0.262670000000     0.427460000000     0.115530000000    -0.472439   
O181     O      0.204080000000     0.378660000000     0.117000000000    -0.477318   
O182     O      0.226150000000     0.429110000000     0.100030000000    -0.500305   
O183     O      0.255840000000     0.350530000000     0.106970000000    -0.499579   
O184     O      0.230440000000     0.388590000000     0.145010000000    -0.499649   
O185     O      0.230410000000     0.388570000000     0.856280000000    -0.499264   
O186     O      0.204040000000     0.378660000000     0.884300000000    -0.477177   
O187     O      0.282180000000     0.378510000000     0.884420000000    -0.477442   
O188     O      0.262640000000     0.427440000000     0.885760000000    -0.47272    
O189     O      0.223600000000     0.379990000000     0.933230000000    -0.472717   
O190     O      0.226130000000     0.429090000000     0.901250000000    -0.500721   
O191     O      0.255800000000     0.350510000000     0.894330000000    -0.49941    
O192     O      0.260120000000     0.395460000000     0.934880000000    -0.500757   
O193     O      0.848790000000     0.757540000000     0.606980000000    -0.499509   
O194     O      0.876800000000     0.783910000000     0.616880000000    -0.477392   
O195     O      0.876920000000     0.705780000000     0.617010000000    -0.477539   
O196     O      0.878260000000     0.725320000000     0.568080000000    -0.472545   
O197     O      0.925730000000     0.764360000000     0.615530000000    -0.472369   
O198     O      0.893730000000     0.761840000000     0.566420000000    -0.500458   
O199     O      0.886860000000     0.732140000000     0.645020000000    -0.499522   
O200     O      0.927370000000     0.727840000000     0.600040000000    -0.500314   
O201     O      0.058870000000     0.727830000000     0.599990000000    -0.500646   
O202     O      0.060540000000     0.764330000000     0.615490000000    -0.472662   
O203     O      0.109300000000     0.705730000000     0.616940000000    -0.47755    
O204     O      0.107990000000     0.725300000000     0.568010000000    -0.472748   
O205     O      0.109460000000     0.783870000000     0.616810000000    -0.477551   
O206     O      0.092500000000     0.761810000000     0.566360000000    -0.500515   
O207     O      0.099420000000     0.732100000000     0.644950000000    -0.499691   
O208     O      0.137460000000     0.757500000000     0.606900000000    -0.499697   
O209     O      0.927370000000     0.727830000000     0.401260000000    -0.500457   
O210     O      0.925710000000     0.764330000000     0.385750000000    -0.472744   
O211     O      0.876930000000     0.705740000000     0.384320000000    -0.477247   
O212     O      0.878260000000     0.725300000000     0.433240000000    -0.472368   
O213     O      0.876790000000     0.783880000000     0.384440000000    -0.47752    
O214     O      0.893740000000     0.761820000000     0.434890000000    -0.500387   
O215     O      0.886820000000     0.732100000000     0.356290000000    -0.499503   
O216     O      0.848780000000     0.757510000000     0.394350000000    -0.49935    
O217     O      0.137450000000     0.757540000000     0.394260000000    -0.499574   
O218     O      0.109440000000     0.783910000000     0.384370000000    -0.477308   
O219     O      0.109310000000     0.705770000000     0.384240000000    -0.477449   
O220     O      0.107990000000     0.725320000000     0.433170000000    -0.472465   
O221     O      0.060520000000     0.764360000000     0.385710000000    -0.472395   
O222     O      0.092510000000     0.761840000000     0.434830000000    -0.500361   
O223     O      0.099380000000     0.732130000000     0.356230000000    -0.499654   
O224     O      0.058870000000     0.727850000000     0.401210000000    -0.500537   
O225     O      0.058840000000     0.395420000000     0.733620000000    -0.500284   
O226     O      0.060500000000     0.379970000000     0.770160000000    -0.472689   
O227     O      0.109280000000     0.378460000000     0.711550000000    -0.477184   
O228     O      0.107940000000     0.427400000000     0.731080000000    -0.472395   
O229     O      0.109430000000     0.378640000000     0.789710000000    -0.477414   
O230     O      0.092470000000     0.429060000000     0.767620000000    -0.500322   
O231     O      0.099370000000     0.350470000000     0.737950000000    -0.499359   
O232     O      0.137430000000     0.388540000000     0.763320000000    -0.499448   
O233     O      0.848750000000     0.388570000000     0.763310000000    -0.499528   
O234     O      0.876740000000     0.378660000000     0.789710000000    -0.477279   
O235     O      0.876910000000     0.378490000000     0.711550000000    -0.477255   
O236     O      0.878250000000     0.427430000000     0.731090000000    -0.472495   
O237     O      0.925690000000     0.379990000000     0.770170000000    -0.472377   
O238     O      0.893720000000     0.429080000000     0.767620000000    -0.500693   
O239     O      0.886810000000     0.350500000000     0.737950000000    -0.499415   
O240     O      0.927350000000     0.395450000000     0.733630000000    -0.500314   
O241     O      0.927350000000     0.594190000000     0.733640000000    -0.500352   
O242     O      0.925710000000     0.609650000000     0.770180000000    -0.472429   
O243     O      0.876910000000     0.611170000000     0.711570000000    -0.477232   
O244     O      0.878250000000     0.562230000000     0.731110000000    -0.47268    
O245     O      0.876770000000     0.611000000000     0.789730000000    -0.477236   
O246     O      0.893720000000     0.560560000000     0.767640000000    -0.500528   
O247     O      0.886840000000     0.639150000000     0.737970000000    -0.499414   
O248     O      0.848770000000     0.601100000000     0.763340000000    -0.49963    
O249     O      0.137440000000     0.601060000000     0.763280000000    -0.499504   
O250     O      0.109450000000     0.610980000000     0.789670000000    -0.477408   
O251     O      0.109290000000     0.611130000000     0.711510000000    -0.477199   
O252     O      0.107950000000     0.562190000000     0.731060000000    -0.472234   
O253     O      0.060520000000     0.609640000000     0.770140000000    -0.47264    
O254     O      0.092480000000     0.560540000000     0.767600000000    -0.50031    
O255     O      0.099390000000     0.639120000000     0.737910000000    -0.499504   
O256     O      0.058850000000     0.594180000000     0.733600000000    -0.500431   
O257     O      0.230450000000     0.139130000000     0.394280000000    -0.499626   
O258     O      0.204070000000     0.111140000000     0.384360000000    -0.477447   
O259     O      0.282220000000     0.110980000000     0.384240000000    -0.477388   
O260     O      0.262650000000     0.109650000000     0.433170000000    -0.472633   
O261     O      0.223610000000     0.062210000000     0.385680000000    -0.472364   
O262     O      0.226130000000     0.094180000000     0.434810000000    -0.500594   
O263     O      0.255850000000     0.101090000000     0.356220000000    -0.499573   
O264     O      0.260120000000     0.060550000000     0.401190000000    -0.500448   
O265     O      0.260090000000     0.929060000000     0.401180000000    -0.500571   
O266     O      0.223580000000     0.927420000000     0.385670000000    -0.472454   
O267     O      0.282170000000     0.878630000000     0.384210000000    -0.477296   
O268     O      0.262620000000     0.879950000000     0.433140000000    -0.472577   
O269     O      0.204020000000     0.878490000000     0.384340000000    -0.47712    
O270     O      0.226100000000     0.895430000000     0.434800000000    -0.500515   
O271     O      0.255810000000     0.888560000000     0.356190000000    -0.499234   
O272     O      0.230410000000     0.850490000000     0.394230000000    -0.499383   
O273     O      0.230410000000     0.850460000000     0.606870000000    -0.499374   
O274     O      0.204030000000     0.878460000000     0.616780000000    -0.477293   
O275     O      0.282180000000     0.878620000000     0.616920000000    -0.477396   
O276     O      0.262620000000     0.879940000000     0.567980000000    -0.47271    
O277     O      0.223570000000     0.927380000000     0.615440000000    -0.472632   
O278     O      0.226100000000     0.895400000000     0.566320000000    -0.500662   
O279     O      0.255800000000     0.888520000000     0.644920000000    -0.499719   
O280     O      0.260090000000     0.929040000000     0.599950000000    -0.500471   
O281     O      0.260070000000     0.060530000000     0.599970000000    -0.500629   
O282     O      0.223550000000     0.062180000000     0.615450000000    -0.4726     
O283     O      0.282150000000     0.110970000000     0.616950000000    -0.477286   
O284     O      0.262610000000     0.109630000000     0.568010000000    -0.472525   
O285     O      0.204000000000     0.111100000000     0.616800000000    -0.477168   
O286     O      0.226080000000     0.094170000000     0.566340000000    -0.500258   
O287     O      0.255770000000     0.101030000000     0.644950000000    -0.499596   
O288     O      0.230390000000     0.139100000000     0.606910000000    -0.499558   
O289     O      0.058910000000     0.261770000000     0.401260000000    -0.500234   
O290     O      0.060560000000     0.225250000000     0.385760000000    -0.472241   
O291     O      0.109350000000     0.283850000000     0.384310000000    -0.477151   
O292     O      0.108020000000     0.264290000000     0.433230000000    -0.47245    
O293     O      0.109490000000     0.205710000000     0.384420000000    -0.477439   
O294     O      0.092540000000     0.227770000000     0.434880000000    -0.500441   
O295     O      0.099440000000     0.257490000000     0.356290000000    -0.499568   
O296     O      0.137500000000     0.232080000000     0.394330000000    -0.499437   
O297     O      0.848830000000     0.232080000000     0.394340000000    -0.499652   
O298     O      0.876830000000     0.205710000000     0.384440000000    -0.477397   
O299     O      0.876970000000     0.283850000000     0.384310000000    -0.477319   
O300     O      0.878290000000     0.264290000000     0.433240000000    -0.472736   
O301     O      0.925760000000     0.225260000000     0.385770000000    -0.47248    
O302     O      0.893770000000     0.227780000000     0.434900000000    -0.50055    
O303     O      0.886880000000     0.257480000000     0.356300000000    -0.499556   
O304     O      0.927410000000     0.261770000000     0.401270000000    -0.500519   
O305     O      0.927370000000     0.261770000000     0.600060000000    -0.500877   
O306     O      0.925710000000     0.225270000000     0.615560000000    -0.472691   
O307     O      0.876920000000     0.283860000000     0.617000000000    -0.477333   
O308     O      0.878260000000     0.264300000000     0.568070000000    -0.472476   
O309     O      0.876780000000     0.205720000000     0.616890000000    -0.477212   
O310     O      0.893740000000     0.227780000000     0.566430000000    -0.500452   
O311     O      0.886830000000     0.257500000000     0.645020000000    -0.499434   
O312     O      0.848780000000     0.232090000000     0.606970000000    -0.499521   
O313     O      0.137450000000     0.232070000000     0.606970000000    -0.499509   
O314     O      0.109440000000     0.205690000000     0.616860000000    -0.477189   
O315     O      0.109310000000     0.283840000000     0.617000000000    -0.47722    
O316     O      0.107990000000     0.264280000000     0.568070000000    -0.472657   
O317     O      0.060520000000     0.225250000000     0.615550000000    -0.472339   
O318     O      0.092500000000     0.227770000000     0.566410000000    -0.50037    
O319     O      0.099400000000     0.257470000000     0.645020000000    -0.499275   
O320     O      0.058870000000     0.261760000000     0.600040000000    -0.500365   
O321     O      0.726160000000     0.929070000000     0.600070000000    -0.500307   
O322     O      0.762680000000     0.927420000000     0.615580000000    -0.47238    
O323     O      0.704080000000     0.878640000000     0.617040000000    -0.477276   
O324     O      0.723630000000     0.879970000000     0.568110000000    -0.472399   
O325     O      0.782230000000     0.878500000000     0.616910000000    -0.477316   
O326     O      0.760160000000     0.895440000000     0.566460000000    -0.500472   
O327     O      0.730440000000     0.888560000000     0.645050000000    -0.499693   
O328     O      0.755840000000     0.850500000000     0.607020000000    -0.49966    
O329     O      0.755830000000     0.139140000000     0.606980000000    -0.499329   
O330     O      0.782210000000     0.111140000000     0.616890000000    -0.477272   
O331     O      0.704060000000     0.110990000000     0.617000000000    -0.477336   
O332     O      0.723620000000     0.109660000000     0.568080000000    -0.472322   
O333     O      0.762660000000     0.062220000000     0.615560000000    -0.472733   
O334     O      0.760150000000     0.094190000000     0.566430000000    -0.500358   
O335     O      0.730420000000     0.101090000000     0.645020000000    -0.499672   
O336     O      0.726150000000     0.060550000000     0.600060000000    -0.500504   
O337     O      0.726180000000     0.060550000000     0.401270000000    -0.500369   
O338     O      0.762710000000     0.062200000000     0.385790000000    -0.472423   
O339     O      0.704110000000     0.110990000000     0.384300000000    -0.477137   
O340     O      0.723650000000     0.109650000000     0.433240000000    -0.472458   
O341     O      0.782260000000     0.111120000000     0.384450000000    -0.477095   
O342     O      0.760180000000     0.094190000000     0.434900000000    -0.50041    
O343     O      0.730490000000     0.101060000000     0.356290000000    -0.499332   
O344     O      0.755870000000     0.139120000000     0.394350000000    -0.499318   
O345     O      0.755850000000     0.850480000000     0.394370000000    -0.499388   
O346     O      0.782230000000     0.878480000000     0.384470000000    -0.4773     
O347     O      0.704080000000     0.878640000000     0.384330000000    -0.477314   
O348     O      0.723640000000     0.879960000000     0.433270000000    -0.472636   
O349     O      0.762690000000     0.927410000000     0.385810000000    -0.472676   
O350     O      0.760160000000     0.895430000000     0.434930000000    -0.500499   
O351     O      0.730460000000     0.888540000000     0.356320000000    -0.499438   
O352     O      0.726180000000     0.929070000000     0.401300000000    -0.500656   
O353     O      0.393710000000     0.929090000000     0.733620000000    -0.500531   
O354     O      0.378230000000     0.927420000000     0.770150000000    -0.472549   
O355     O      0.376760000000     0.878650000000     0.711520000000    -0.477198   
O356     O      0.425690000000     0.879990000000     0.731080000000    -0.472415   
O357     O      0.376900000000     0.878490000000     0.789680000000    -0.47738    
O358     O      0.427340000000     0.895450000000     0.767620000000    -0.500393   
O359     O      0.348760000000     0.888550000000     0.737910000000    -0.499583   
O360     O      0.386820000000     0.850500000000     0.763290000000    -0.499359   
O361     O      0.386780000000     0.139150000000     0.763310000000    -0.499469   
O362     O      0.376890000000     0.111160000000     0.789710000000    -0.477327   
O363     O      0.376730000000     0.110990000000     0.711550000000    -0.4774     
O364     O      0.425670000000     0.109660000000     0.731100000000    -0.472474   
O365     O      0.378220000000     0.062220000000     0.770170000000    -0.472482   
O366     O      0.427320000000     0.094200000000     0.767640000000    -0.500363   
O367     O      0.348740000000     0.101070000000     0.737940000000    -0.499695   
O368     O      0.393700000000     0.060570000000     0.733640000000    -0.500577   
O369     O      0.599380000000     0.850520000000     0.763360000000    -0.499421   
O370     O      0.609270000000     0.878510000000     0.789760000000    -0.477255   
O371     O      0.609450000000     0.878670000000     0.711600000000    -0.47741    
O372     O      0.560500000000     0.880010000000     0.731130000000    -0.47269    
O373     O      0.607930000000     0.927450000000     0.770210000000    -0.472519   
O374     O      0.558840000000     0.895460000000     0.767660000000    -0.500743   
O375     O      0.637440000000     0.888590000000     0.737990000000    -0.499463   
O376     O      0.592480000000     0.929100000000     0.733670000000    -0.500663   
O377     O      0.592460000000     0.060580000000     0.733650000000    -0.500462   
O378     O      0.607920000000     0.062250000000     0.770190000000    -0.472533   
O379     O      0.609420000000     0.111010000000     0.711560000000    -0.477283   
O380     O      0.560480000000     0.109680000000     0.731100000000    -0.472421   
O381     O      0.609260000000     0.111190000000     0.789720000000    -0.477084   
O382     O      0.558820000000     0.094220000000     0.767640000000    -0.500499   
O383     O      0.637410000000     0.101110000000     0.737960000000    -0.499555   
O384     O      0.599350000000     0.139170000000     0.763310000000    -0.499475   


