data_structure

_audit_creation_method RASPA-1.0
_audit_creation_date 2023-5-22
_audit_author_name 'Poobodin Mano'

_cell_length_a    40.2246
_cell_length_b    40.2248
_cell_length_c    41.0628
_cell_angle_alpha 89.9999
_cell_angle_beta  90.0096
_cell_angle_gamma 89.7137
_cell_volume      66439.9

_symmetry_cell_setting          triclinic
_symmetry_space_group_name_Hall 'P 1'
_symmetry_space_group_name_H-M  'P 1'
_symmetry_Int_Tables_number     1

_symmetry_equiv_pos_as_xyz 'x,y,z'

loop_
_atom_site_label
_atom_site_type_symbol
_atom_site_fract_x
_atom_site_fract_y
_atom_site_fract_z
_atom_site_charge
C1       C      0.288050000000     0.361540000000     0.686600000000     0.350066   
C2       C      0.288060000000     0.358100000000     0.567510000000     0.350027   
C3       C      0.230180000000     0.299930000000     0.625340000000     0.34576    
C4       C      0.230120000000     0.420020000000     0.628740000000     0.346204   
C5       C      0.111250000000     0.112330000000     0.566800000000     0.350443   
C6       C      0.110420000000     0.108910000000     0.685890000000     0.350115   
C7       C      0.168710000000     0.050230000000     0.628450000000     0.346082   
C8       C      0.168760000000     0.170330000000     0.625040000000     0.345778   
C9       C      0.326390000000     0.324890000000     0.317350000000     0.350346   
C10      C      0.322970000000     0.324060000000     0.436440000000     0.350217   
C11      C      0.264960000000     0.266550000000     0.378190000000     0.346063   
C12      C      0.385060000000     0.266600000000     0.374790000000     0.346111   
C13      C      0.073750000000     0.147270000000     0.316630000000     0.350308   
C14      C      0.077200000000     0.147250000000     0.435720000000     0.350117   
C15      C      0.135360000000     0.205130000000     0.377890000000     0.346096   
C16      C      0.015270000000     0.205190000000     0.374480000000     0.346116   
C17      C      0.322450000000     0.396890000000     0.817350000000     0.350091   
C18      C      0.325880000000     0.397720000000     0.936440000000     0.350213   
C19      C      0.383880000000     0.455230000000     0.878200000000     0.345709   
C20      C      0.263790000000     0.455190000000     0.874780000000     0.345811   
C21      C      0.075090000000     0.074520000000     0.816630000000     0.350168   
C22      C      0.071650000000     0.074530000000     0.935720000000     0.350086   
C23      C      0.013480000000     0.016660000000     0.877890000000     0.345841   
C24      C      0.133580000000     0.016600000000     0.874490000000     0.346063   
C25      C      0.037590000000     0.109440000000     0.066790000000     0.350157   
C26      C      0.038420000000     0.112860000000     0.185880000000     0.350248   
C27      C      0.980130000000     0.171530000000     0.128440000000     0.345978   
C28      C      0.980080000000     0.051440000000     0.125030000000     0.345747   
C29      C      0.360800000000     0.360230000000     0.186610000000     0.350696   
C30      C      0.360780000000     0.363670000000     0.067520000000     0.349743   
C31      C      0.418660000000     0.421840000000     0.125360000000     0.345846   
C32      C      0.418720000000     0.301740000000     0.128760000000     0.346012   
C33      C      0.984040000000     0.233590000000     0.129100000000    -0.00562895 
C34      C      0.464360000000     0.204800000000     0.129050000000    -0.0725864  
C35      C      0.429600000000     0.208150000000     0.129300000000    -0.0062614  
C36      C      0.414820000000     0.239690000000     0.129380000000    -0.00560482 
C37      C      0.434500000000     0.268480000000     0.129220000000    -0.0726528  
C38      C      0.469260000000     0.265130000000     0.129170000000    -0.00619518 
C39      C      0.469190000000     0.457950000000     0.124570000000    -0.00621881 
C40      C      0.434430000000     0.454950000000     0.124800000000    -0.0726254  
C41      C      0.414750000000     0.983940000000     0.124770000000    -0.00565386 
C42      C      0.429540000000     0.015330000000     0.124700000000    -0.00625872 
C43      C      0.464290000000     0.018330000000     0.124640000000    -0.0724498  
C44      C      0.983970000000     0.489340000000     0.124470000000    -0.00564269 
C45      C      0.043640000000     0.112780000000     0.975110000000    -0.00522549 
C46      C      0.067130000000     0.087650000000     0.968980000000    -0.075109   
C47      C      0.083690000000     0.072610000000     0.995320000000    -0.00452672 
C48      C      0.075660000000     0.081320000000     0.027320000000    -0.00521888 
C49      C      0.050470000000     0.104750000000     0.033470000000    -0.075174   
C50      C      0.035140000000     0.121040000000     0.007120000000    -0.00455137 
C51      C      0.354000000000     0.359660000000     0.975920000000    -0.00511964 
C52      C      0.330570000000     0.384850000000     0.969760000000    -0.0753115  
C53      C      0.314280000000     0.400170000000     0.996100000000    -0.00445853 
C54      C      0.322540000000     0.391670000000     0.028120000000    -0.00528678 
C55      C      0.347670000000     0.368190000000     0.034260000000    -0.0749981  
C56      C      0.362710000000     0.351620000000     0.007930000000    -0.00463048 
C57      C      0.201720000000     0.451270000000     0.874130000000    -0.00577172 
C58      C      0.230520000000     0.470960000000     0.874170000000    -0.0725184  
C59      C      0.227170000000     0.005710000000     0.873930000000    -0.006254   
C60      C      0.195630000000     0.020490000000     0.873860000000    -0.00560235 
C61      C      0.166840000000     0.000810000000     0.874030000000    -0.0726844  
C62      C      0.170190000000     0.466050000000     0.874070000000    -0.00615339 
C63      C      0.419990000000     0.005780000000     0.878510000000    -0.00617404 
C64      C      0.416990000000     0.471020000000     0.878590000000    -0.0724311  
C65      C      0.445980000000     0.451340000000     0.878780000000    -0.00576216 
C66      C      0.477370000000     0.466130000000     0.878690000000    -0.0061372  
C67      C      0.480370000000     0.000880000000     0.878430000000    -0.0725662  
C68      C      0.451380000000     0.020560000000     0.878450000000    -0.00570446 
C69      C      0.045720000000     0.109110000000     0.277450000000    -0.00516602 
C70      C      0.069050000000     0.134210000000     0.283400000000    -0.075272   
C71      C      0.085160000000     0.149320000000     0.256920000000    -0.00450144 
C72      C      0.076800000000     0.140730000000     0.224980000000    -0.00516934 
C73      C      0.051730000000     0.117370000000     0.219040000000    -0.0752455  
C74      C      0.036900000000     0.100980000000     0.245510000000    -0.0045111  
C75      C      0.354260000000     0.363270000000     0.278260000000    -0.00524154 
C76      C      0.330890000000     0.338210000000     0.284190000000    -0.0752147  
C77      C      0.314510000000     0.323370000000     0.257720000000    -0.00455549 
C78      C      0.322640000000     0.332200000000     0.225790000000    -0.00507575 
C79      C      0.347740000000     0.355530000000     0.219840000000    -0.0754204  
C80      C      0.362850000000     0.371630000000     0.246320000000    -0.00440192 
C81      C      0.228850000000     0.216010000000     0.378530000000    -0.00610623 
C82      C      0.231860000000     0.250760000000     0.378590000000    -0.0726911  
C83      C      0.202860000000     0.270440000000     0.378760000000    -0.00565645 
C84      C      0.171480000000     0.255660000000     0.378680000000    -0.00618916 
C85      C      0.168470000000     0.220900000000     0.378440000000    -0.0726614  
C86      C      0.197470000000     0.201220000000     0.378460000000    -0.00574033 
C87      C      0.421680000000     0.216070000000     0.373920000000    -0.00609858 
C88      C      0.418320000000     0.250830000000     0.374180000000    -0.0727872  
C89      C      0.447120000000     0.270510000000     0.374150000000    -0.00559624 
C90      C      0.478650000000     0.255730000000     0.374080000000    -0.00624739 
C91      C      0.482000000000     0.220980000000     0.374020000000    -0.0724796  
C92      C      0.453210000000     0.201290000000     0.373840000000    -0.00575354 
C93      C      0.113690000000     0.100740000000     0.507130000000    -0.00437889 
C94      C      0.098370000000     0.117020000000     0.533480000000    -0.0753781  
C95      C      0.073190000000     0.140450000000     0.527320000000    -0.0050941  
C96      C      0.065150000000     0.149170000000     0.495310000000    -0.00458462 
C97      C      0.081710000000     0.134130000000     0.468980000000    -0.0750746  
C98      C      0.105200000000     0.108990000000     0.475120000000    -0.00535842 
C99      C      0.111950000000     0.120790000000     0.745520000000    -0.00452866 
C100     C      0.097120000000     0.104410000000     0.719050000000    -0.0751867  
C101     C      0.072040000000     0.081040000000     0.724980000000    -0.00528793 
C102     C      0.063680000000     0.072460000000     0.756920000000    -0.00443927 
C103     C      0.079790000000     0.087570000000     0.783400000000    -0.0752803  
C104     C      0.103120000000     0.112670000000     0.777450000000    -0.00512576 
C105     C      0.286130000000     0.370150000000     0.507920000000    -0.0044968  
C106     C      0.301170000000     0.353590000000     0.534260000000    -0.0751742  
C107     C      0.326310000000     0.330100000000     0.528120000000    -0.00524683 
C108     C      0.334570000000     0.321610000000     0.496110000000    -0.00451923 
C109     C      0.318270000000     0.336930000000     0.469760000000    -0.0752257  
C110     C      0.294840000000     0.362120000000     0.475910000000    -0.00521005 
C111     C      0.294590000000     0.358510000000     0.778250000000    -0.00512279 
C112     C      0.317950000000     0.383580000000     0.784190000000    -0.0752423  
C113     C      0.334330000000     0.398410000000     0.757720000000    -0.00447544 
C114     C      0.326210000000     0.389580000000     0.725790000000    -0.00522936 
C115     C      0.301110000000     0.366240000000     0.719830000000    -0.0751539  
C116     C      0.286000000000     0.350140000000     0.746310000000    -0.00455433 
C117     C      0.234090000000     0.237820000000     0.624780000000    -0.00570467 
C118     C      0.214410000000     0.266820000000     0.624800000000    -0.0725775  
C119     C      0.179650000000     0.263810000000     0.624550000000    -0.00620285 
C120     C      0.164870000000     0.232430000000     0.624460000000    -0.00570351 
C121     C      0.184550000000     0.203430000000     0.624640000000    -0.0725533  
C122     C      0.219310000000     0.206440000000     0.624720000000    -0.00618756 
C123     C      0.219240000000     0.013610000000     0.629310000000    -0.00611513 
C124     C      0.184490000000     0.016970000000     0.629060000000    -0.0727212  
C125     C      0.164800000000     0.488170000000     0.629090000000    -0.00568965 
C126     C      0.179580000000     0.456640000000     0.629160000000    -0.00613544 
C127     C      0.214340000000     0.453280000000     0.629210000000    -0.0727109  
C128     C      0.234020000000     0.982080000000     0.629390000000    -0.00570083 
C129     C      0.288050000000     0.861540000000     0.686600000000     0.350066   
C130     C      0.288060000000     0.858090000000     0.567510000000     0.350105   
C131     C      0.230180000000     0.799930000000     0.625340000000     0.345855   
C132     C      0.230120000000     0.920020000000     0.628740000000     0.346053   
C133     C      0.111250000000     0.612330000000     0.566800000000     0.350311   
C134     C      0.110420000000     0.608910000000     0.685890000000     0.350201   
C135     C      0.168710000000     0.550230000000     0.628450000000     0.34608    
C136     C      0.168760000000     0.670330000000     0.625040000000     0.345779   
C137     C      0.326390000000     0.824890000000     0.317350000000     0.350114   
C138     C      0.322970000000     0.824060000000     0.436440000000     0.35021    
C139     C      0.264960000000     0.766550000000     0.378190000000     0.346064   
C140     C      0.385060000000     0.766600000000     0.374790000000     0.346104   
C141     C      0.073750000000     0.647270000000     0.316630000000     0.350307   
C142     C      0.077200000000     0.647250000000     0.435720000000     0.350124   
C143     C      0.135360000000     0.705130000000     0.377890000000     0.345761   
C144     C      0.015270000000     0.705190000000     0.374480000000     0.346184   
C145     C      0.322450000000     0.896890000000     0.817350000000     0.350081   
C146     C      0.325880000000     0.897720000000     0.936440000000     0.35022    
C147     C      0.383880000000     0.955230000000     0.878200000000     0.346063   
C148     C      0.263790000000     0.955180000000     0.874780000000     0.34584    
C149     C      0.075090000000     0.574520000000     0.816630000000     0.350161   
C150     C      0.071650000000     0.574530000000     0.935720000000     0.350089   
C151     C      0.013480000000     0.516660000000     0.877890000000     0.345866   
C152     C      0.133580000000     0.516600000000     0.874490000000     0.346044   
C153     C      0.037590000000     0.609440000000     0.066790000000     0.350153   
C154     C      0.038420000000     0.612860000000     0.185880000000     0.350258   
C155     C      0.980130000000     0.671530000000     0.128440000000     0.345982   
C156     C      0.980080000000     0.551430000000     0.125030000000     0.345691   
C157     C      0.360800000000     0.860230000000     0.186610000000     0.350574   
C158     C      0.360780000000     0.863670000000     0.067520000000     0.349745   
C159     C      0.418660000000     0.921840000000     0.125360000000     0.34585    
C160     C      0.418720000000     0.801740000000     0.128760000000     0.346005   
C161     C      0.984040000000     0.733590000000     0.129100000000    -0.00562166 
C162     C      0.464360000000     0.704800000000     0.129050000000    -0.0725955  
C163     C      0.429600000000     0.708150000000     0.129300000000    -0.0062421  
C164     C      0.414820000000     0.739680000000     0.129380000000    -0.00563325 
C165     C      0.434500000000     0.768480000000     0.129220000000    -0.0726368  
C166     C      0.469260000000     0.765130000000     0.129170000000    -0.00620299 
C167     C      0.469190000000     0.957950000000     0.124560000000    -0.00620166 
C168     C      0.434430000000     0.954950000000     0.124800000000    -0.0726397  
C169     C      0.414750000000     0.483940000000     0.124770000000    -0.00566643 
C170     C      0.429540000000     0.515330000000     0.124700000000    -0.00622225 
C171     C      0.464290000000     0.518330000000     0.124640000000    -0.0725437  
C172     C      0.983970000000     0.989340000000     0.124470000000    -0.0056879  
C173     C      0.043640000000     0.612780000000     0.975110000000    -0.00522    
C174     C      0.067130000000     0.587650000000     0.968980000000    -0.0751162  
C175     C      0.083690000000     0.572610000000     0.995320000000    -0.00451118 
C176     C      0.075660000000     0.581320000000     0.027320000000    -0.00524885 
C177     C      0.050470000000     0.604750000000     0.033470000000    -0.0751625  
C178     C      0.035140000000     0.621040000000     0.007120000000    -0.00455767 
C179     C      0.354000000000     0.859660000000     0.975920000000    -0.00511725 
C180     C      0.330570000000     0.884850000000     0.969760000000    -0.0753248  
C181     C      0.314280000000     0.900170000000     0.996100000000    -0.00442439 
C182     C      0.322530000000     0.891670000000     0.028120000000    -0.00535089 
C183     C      0.347670000000     0.868180000000     0.034260000000    -0.0749851  
C184     C      0.362710000000     0.851620000000     0.007930000000    -0.00462189 
C185     C      0.201720000000     0.951270000000     0.874130000000    -0.0058524  
C186     C      0.230520000000     0.970960000000     0.874170000000    -0.0724636  
C187     C      0.227170000000     0.505710000000     0.873930000000    -0.00623293 
C188     C      0.195630000000     0.520490000000     0.873860000000    -0.00562805 
C189     C      0.166840000000     0.500810000000     0.874030000000    -0.0726374  
C190     C      0.170190000000     0.966060000000     0.874070000000    -0.0060437  
C191     C      0.419990000000     0.505780000000     0.878510000000    -0.00626739 
C192     C      0.416990000000     0.971020000000     0.878590000000    -0.0726038  
C193     C      0.445980000000     0.951340000000     0.878780000000    -0.00564197 
C194     C      0.477370000000     0.966120000000     0.878690000000    -0.00625859 
C195     C      0.480370000000     0.500880000000     0.878430000000    -0.0726402  
C196     C      0.451380000000     0.520560000000     0.878450000000    -0.00564463 
C197     C      0.045720000000     0.609110000000     0.277450000000    -0.00517567 
C198     C      0.069050000000     0.634210000000     0.283400000000    -0.0752694  
C199     C      0.085160000000     0.649320000000     0.256920000000    -0.00449786 
C200     C      0.076800000000     0.640730000000     0.224980000000    -0.0051815  
C201     C      0.051730000000     0.617360000000     0.219040000000    -0.0752585  
C202     C      0.036900000000     0.600980000000     0.245510000000    -0.00448874 
C203     C      0.354260000000     0.863270000000     0.278260000000    -0.00528218 
C204     C      0.330890000000     0.838200000000     0.284190000000    -0.0751481  
C205     C      0.314510000000     0.823370000000     0.257720000000    -0.00455897 
C206     C      0.322640000000     0.832200000000     0.225790000000    -0.00508999 
C207     C      0.347740000000     0.855530000000     0.219840000000    -0.0753787  
C208     C      0.362850000000     0.871630000000     0.246320000000    -0.0044032  
C209     C      0.228850000000     0.716010000000     0.378530000000    -0.00609609 
C210     C      0.231860000000     0.750760000000     0.378590000000    -0.0727042  
C211     C      0.202860000000     0.770440000000     0.378760000000    -0.00563266 
C212     C      0.171480000000     0.755660000000     0.378680000000    -0.00624186 
C213     C      0.168470000000     0.720900000000     0.378440000000    -0.072544   
C214     C      0.197470000000     0.701220000000     0.378460000000    -0.00575841 
C215     C      0.421680000000     0.716070000000     0.373920000000    -0.00611788 
C216     C      0.418320000000     0.750830000000     0.374180000000    -0.0727703  
C217     C      0.447120000000     0.770510000000     0.374150000000    -0.00562391 
C218     C      0.478650000000     0.755730000000     0.374080000000    -0.00619197 
C219     C      0.482010000000     0.720980000000     0.374020000000    -0.0725756  
C220     C      0.453210000000     0.701290000000     0.373840000000    -0.00571973 
C221     C      0.113690000000     0.600730000000     0.507130000000    -0.00446417 
C222     C      0.098370000000     0.617020000000     0.533480000000    -0.0752936  
C223     C      0.073190000000     0.640450000000     0.527320000000    -0.00513488 
C224     C      0.065150000000     0.649170000000     0.495310000000    -0.00455853 
C225     C      0.081710000000     0.634130000000     0.468980000000    -0.075099   
C226     C      0.105200000000     0.608990000000     0.475120000000    -0.0053117  
C227     C      0.111950000000     0.620790000000     0.745520000000    -0.00449533 
C228     C      0.097120000000     0.604410000000     0.719050000000    -0.075241   
C229     C      0.072040000000     0.581040000000     0.724980000000    -0.00526062 
C230     C      0.063680000000     0.572460000000     0.756920000000    -0.00445678 
C231     C      0.079790000000     0.587570000000     0.783400000000    -0.0752618  
C232     C      0.103120000000     0.612670000000     0.777450000000    -0.00516317 
C233     C      0.286130000000     0.870150000000     0.507920000000    -0.00446746 
C234     C      0.301170000000     0.853590000000     0.534260000000    -0.0752327  
C235     C      0.326310000000     0.830100000000     0.528120000000    -0.00522557 
C236     C      0.334570000000     0.821610000000     0.496110000000    -0.00453161 
C237     C      0.318270000000     0.836930000000     0.469760000000    -0.0752152  
C238     C      0.294840000000     0.862120000000     0.475910000000    -0.00522597 
C239     C      0.294590000000     0.858500000000     0.778250000000    -0.00516604 
C240     C      0.317950000000     0.883580000000     0.784190000000    -0.075218   
C241     C      0.334330000000     0.898410000000     0.757720000000    -0.00449364 
C242     C      0.326210000000     0.889580000000     0.725790000000    -0.00520568 
C243     C      0.301110000000     0.866250000000     0.719830000000    -0.0751575  
C244     C      0.286000000000     0.850140000000     0.746310000000    -0.00454517 
C245     C      0.234090000000     0.737820000000     0.624780000000    -0.00568331 
C246     C      0.214410000000     0.766820000000     0.624800000000    -0.0726284  
C247     C      0.179650000000     0.763810000000     0.624550000000    -0.00617849 
C248     C      0.164870000000     0.732430000000     0.624460000000    -0.00571569 
C249     C      0.184550000000     0.703430000000     0.624640000000    -0.072542   
C250     C      0.219310000000     0.706440000000     0.624720000000    -0.00619938 
C251     C      0.219240000000     0.513610000000     0.629310000000    -0.00615088 
C252     C      0.184490000000     0.516970000000     0.629060000000    -0.072703   
C253     C      0.164800000000     0.988170000000     0.629090000000    -0.00565912 
C254     C      0.179580000000     0.956640000000     0.629160000000    -0.0062119  
C255     C      0.214340000000     0.953290000000     0.629210000000    -0.0725653  
C256     C      0.234020000000     0.482080000000     0.629390000000    -0.00564018 
C257     C      0.788050000000     0.361540000000     0.686600000000     0.350074   
C258     C      0.788060000000     0.358100000000     0.567510000000     0.350432   
C259     C      0.730190000000     0.299930000000     0.625340000000     0.345807   
C260     C      0.730130000000     0.420020000000     0.628740000000     0.346249   
C261     C      0.611250000000     0.112330000000     0.566800000000     0.350425   
C262     C      0.610430000000     0.108910000000     0.685890000000     0.350152   
C263     C      0.668710000000     0.050230000000     0.628450000000     0.346087   
C264     C      0.668760000000     0.170330000000     0.625040000000     0.346118   
C265     C      0.826390000000     0.324890000000     0.317350000000     0.350346   
C266     C      0.822970000000     0.324060000000     0.436440000000     0.350215   
C267     C      0.764960000000     0.266550000000     0.378190000000     0.346066   
C268     C      0.885060000000     0.266600000000     0.374790000000     0.346102   
C269     C      0.573750000000     0.147270000000     0.316630000000     0.350296   
C270     C      0.577200000000     0.147250000000     0.435720000000     0.35027    
C271     C      0.635360000000     0.205130000000     0.377890000000     0.346064   
C272     C      0.515270000000     0.205190000000     0.374490000000     0.345903   
C273     C      0.822450000000     0.396890000000     0.817350000000     0.350086   
C274     C      0.825880000000     0.397720000000     0.936440000000     0.350215   
C275     C      0.883880000000     0.455230000000     0.878200000000     0.345711   
C276     C      0.763790000000     0.455190000000     0.874780000000     0.345816   
C277     C      0.575090000000     0.074520000000     0.816630000000     0.350172   
C278     C      0.571650000000     0.074530000000     0.935720000000     0.350085   
C279     C      0.513480000000     0.016660000000     0.877880000000     0.345876   
C280     C      0.633580000000     0.016600000000     0.874490000000     0.346063   
C281     C      0.537590000000     0.109440000000     0.066790000000     0.350163   
C282     C      0.538420000000     0.112860000000     0.185880000000     0.350264   
C283     C      0.480130000000     0.171530000000     0.128440000000     0.345945   
C284     C      0.480080000000     0.051440000000     0.125030000000     0.345713   
C285     C      0.860800000000     0.360230000000     0.186610000000     0.350692   
C286     C      0.860790000000     0.363670000000     0.067520000000     0.349781   
C287     C      0.918660000000     0.421840000000     0.125360000000     0.345843   
C288     C      0.918720000000     0.301740000000     0.128760000000     0.346018   
C289     C      0.484040000000     0.233590000000     0.129100000000    -0.00566879 
C290     C      0.964360000000     0.204800000000     0.129050000000    -0.0726053  
C291     C      0.929600000000     0.208150000000     0.129300000000    -0.00624847 
C292     C      0.914820000000     0.239690000000     0.129380000000    -0.00561352 
C293     C      0.934500000000     0.268480000000     0.129220000000    -0.0726396  
C294     C      0.969260000000     0.265130000000     0.129170000000    -0.00620907 
C295     C      0.969190000000     0.457950000000     0.124560000000    -0.00623645 
C296     C      0.934430000000     0.454950000000     0.124800000000    -0.0726101  
C297     C      0.914750000000     0.983940000000     0.124770000000    -0.00566379 
C298     C      0.929540000000     0.015330000000     0.124700000000    -0.00624527 
C299     C      0.964290000000     0.018330000000     0.124630000000    -0.0724703  
C300     C      0.483970000000     0.489340000000     0.124470000000    -0.00568625 
C301     C      0.543640000000     0.112780000000     0.975110000000    -0.00523021 
C302     C      0.567130000000     0.087650000000     0.968980000000    -0.0750996  
C303     C      0.583690000000     0.072610000000     0.995320000000    -0.00454028 
C304     C      0.575660000000     0.081320000000     0.027320000000    -0.0051855  
C305     C      0.550470000000     0.104750000000     0.033470000000    -0.075189   
C306     C      0.535140000000     0.121040000000     0.007120000000    -0.00454148 
C307     C      0.854000000000     0.359660000000     0.975920000000    -0.0051121  
C308     C      0.830570000000     0.384850000000     0.969760000000    -0.0753153  
C309     C      0.814280000000     0.400170000000     0.996100000000    -0.00445393 
C310     C      0.822540000000     0.391670000000     0.028120000000    -0.00529466 
C311     C      0.847670000000     0.368190000000     0.034260000000    -0.0749742  
C312     C      0.862710000000     0.351620000000     0.007930000000    -0.00464539 
C313     C      0.701730000000     0.451270000000     0.874130000000    -0.00574364 
C314     C      0.730520000000     0.470960000000     0.874170000000    -0.0725312  
C315     C      0.727170000000     0.005710000000     0.873930000000    -0.00628536 
C316     C      0.695630000000     0.020490000000     0.873860000000    -0.00558788 
C317     C      0.666840000000     0.000810000000     0.874030000000    -0.0726848  
C318     C      0.670190000000     0.466050000000     0.874070000000    -0.00617142 
C319     C      0.919990000000     0.005780000000     0.878510000000    -0.00616612 
C320     C      0.916990000000     0.471020000000     0.878600000000    -0.0724357  
C321     C      0.945980000000     0.451340000000     0.878780000000    -0.00575379 
C322     C      0.977370000000     0.466130000000     0.878690000000    -0.00614624 
C323     C      0.980370000000     0.000880000000     0.878440000000    -0.0725354  
C324     C      0.951380000000     0.020560000000     0.878450000000    -0.00571368 
C325     C      0.545720000000     0.109110000000     0.277450000000    -0.00521367 
C326     C      0.569050000000     0.134210000000     0.283400000000    -0.0752246  
C327     C      0.585160000000     0.149330000000     0.256920000000    -0.00457233 
C328     C      0.576800000000     0.140730000000     0.224980000000    -0.00511951 
C329     C      0.551730000000     0.117370000000     0.219040000000    -0.07529    
C330     C      0.536900000000     0.100990000000     0.245510000000    -0.00443708 
C331     C      0.854260000000     0.363270000000     0.278260000000    -0.00524135 
C332     C      0.830890000000     0.338210000000     0.284190000000    -0.0752139  
C333     C      0.814510000000     0.323370000000     0.257720000000    -0.00455442 
C334     C      0.822640000000     0.332200000000     0.225790000000    -0.00507644 
C335     C      0.847740000000     0.355530000000     0.219840000000    -0.0754223  
C336     C      0.862850000000     0.371630000000     0.246320000000    -0.0043996  
C337     C      0.728850000000     0.216010000000     0.378530000000    -0.00608562 
C338     C      0.731860000000     0.250760000000     0.378590000000    -0.0726997  
C339     C      0.702860000000     0.270440000000     0.378760000000    -0.00565305 
C340     C      0.671480000000     0.255660000000     0.378680000000    -0.00618796 
C341     C      0.668470000000     0.220910000000     0.378440000000    -0.0726125  
C342     C      0.697470000000     0.201220000000     0.378460000000    -0.00578454 
C343     C      0.921680000000     0.216070000000     0.373920000000    -0.00613508 
C344     C      0.918320000000     0.250830000000     0.374180000000    -0.0727603  
C345     C      0.947120000000     0.270510000000     0.374150000000    -0.00562563 
C346     C      0.978650000000     0.255730000000     0.374080000000    -0.00618318 
C347     C      0.982000000000     0.220970000000     0.374020000000    -0.0725822  
C348     C      0.953210000000     0.201290000000     0.373840000000    -0.00567628 
C349     C      0.613700000000     0.100740000000     0.507130000000    -0.00446353 
C350     C      0.598370000000     0.117020000000     0.533480000000    -0.0753109  
C351     C      0.573190000000     0.140460000000     0.527320000000    -0.00517863 
C352     C      0.565150000000     0.149170000000     0.495310000000    -0.00450944 
C353     C      0.581710000000     0.134130000000     0.468980000000    -0.0751619  
C354     C      0.605200000000     0.108990000000     0.475120000000    -0.00528519 
C355     C      0.611950000000     0.120790000000     0.745520000000    -0.00454695 
C356     C      0.597120000000     0.104410000000     0.719050000000    -0.0751539  
C357     C      0.572040000000     0.081040000000     0.724980000000    -0.00529607 
C358     C      0.563680000000     0.072460000000     0.756920000000    -0.00443319 
C359     C      0.579790000000     0.087570000000     0.783400000000    -0.0752854  
C360     C      0.603120000000     0.112670000000     0.777450000000    -0.00511582 
C361     C      0.786130000000     0.370150000000     0.507920000000    -0.00440868 
C362     C      0.801170000000     0.353590000000     0.534260000000    -0.075351   
C363     C      0.826310000000     0.330100000000     0.528120000000    -0.00517239 
C364     C      0.834570000000     0.321610000000     0.496110000000    -0.0045402  
C365     C      0.818280000000     0.336930000000     0.469760000000    -0.0752051  
C366     C      0.794840000000     0.362120000000     0.475910000000    -0.00526643 
C367     C      0.794590000000     0.358510000000     0.778250000000    -0.00515306 
C368     C      0.817950000000     0.383580000000     0.784190000000    -0.0752293  
C369     C      0.834330000000     0.398410000000     0.757720000000    -0.00448157 
C370     C      0.826210000000     0.389580000000     0.725790000000    -0.0052223  
C371     C      0.801110000000     0.366240000000     0.719830000000    -0.0751616  
C372     C      0.786000000000     0.350140000000     0.746310000000    -0.00453732 
C373     C      0.734090000000     0.237820000000     0.624780000000    -0.00574303 
C374     C      0.714410000000     0.266820000000     0.624800000000    -0.0725515  
C375     C      0.679660000000     0.263810000000     0.624550000000    -0.00617524 
C376     C      0.664870000000     0.232430000000     0.624460000000    -0.00567076 
C377     C      0.684550000000     0.203430000000     0.624640000000    -0.0726796  
C378     C      0.719310000000     0.206440000000     0.624720000000    -0.00612772 
C379     C      0.719240000000     0.013610000000     0.629310000000    -0.00610349 
C380     C      0.684490000000     0.016970000000     0.629060000000    -0.0727283  
C381     C      0.664800000000     0.488170000000     0.629090000000    -0.00568474 
C382     C      0.679580000000     0.456640000000     0.629160000000    -0.00614387 
C383     C      0.714340000000     0.453280000000     0.629210000000    -0.0726739  
C384     C      0.734020000000     0.982080000000     0.629390000000    -0.00572423 
C385     C      0.788050000000     0.861540000000     0.686600000000     0.35007    
C386     C      0.788060000000     0.858090000000     0.567510000000     0.35043    
C387     C      0.730190000000     0.799930000000     0.625340000000     0.345895   
C388     C      0.730130000000     0.920020000000     0.628740000000     0.34609    
C389     C      0.611250000000     0.612330000000     0.566800000000     0.350308   
C390     C      0.610430000000     0.608910000000     0.685890000000     0.350157   
C391     C      0.668710000000     0.550230000000     0.628450000000     0.34608    
C392     C      0.668760000000     0.670330000000     0.625040000000     0.346112   
C393     C      0.826390000000     0.824890000000     0.317350000000     0.350109   
C394     C      0.822970000000     0.824060000000     0.436440000000     0.350211   
C395     C      0.764960000000     0.766550000000     0.378190000000     0.346067   
C396     C      0.885060000000     0.766600000000     0.374790000000     0.346095   
C397     C      0.573750000000     0.647270000000     0.316630000000     0.350289   
C398     C      0.577200000000     0.647250000000     0.435720000000     0.350267   
C399     C      0.635360000000     0.705130000000     0.377890000000     0.345728   
C400     C      0.515270000000     0.705190000000     0.374490000000     0.345971   
C401     C      0.822450000000     0.896890000000     0.817350000000     0.350077   
C402     C      0.825880000000     0.897720000000     0.936440000000     0.350217   
C403     C      0.883880000000     0.955230000000     0.878200000000     0.346066   
C404     C      0.763790000000     0.955180000000     0.874780000000     0.345838   
C405     C      0.575090000000     0.574520000000     0.816630000000     0.350167   
C406     C      0.571650000000     0.574530000000     0.935720000000     0.350088   
C407     C      0.513480000000     0.516660000000     0.877880000000     0.345902   
C408     C      0.633580000000     0.516600000000     0.874490000000     0.346041   
C409     C      0.537590000000     0.609440000000     0.066790000000     0.350165   
C410     C      0.538420000000     0.612860000000     0.185880000000     0.350267   
C411     C      0.480130000000     0.671530000000     0.128440000000     0.345949   
C412     C      0.480080000000     0.551430000000     0.125030000000     0.345656   
C413     C      0.860800000000     0.860230000000     0.186610000000     0.350572   
C414     C      0.860790000000     0.863670000000     0.067520000000     0.349793   
C415     C      0.918660000000     0.921840000000     0.125360000000     0.345849   
C416     C      0.918720000000     0.801740000000     0.128760000000     0.34601    
C417     C      0.484040000000     0.733590000000     0.129100000000    -0.00566135 
C418     C      0.964360000000     0.704800000000     0.129050000000    -0.0726147  
C419     C      0.929600000000     0.708150000000     0.129300000000    -0.00622922 
C420     C      0.914820000000     0.739680000000     0.129380000000    -0.00564203 
C421     C      0.934500000000     0.768480000000     0.129220000000    -0.0726238  
C422     C      0.969260000000     0.765130000000     0.129170000000    -0.006217   
C423     C      0.969190000000     0.957950000000     0.124560000000    -0.00621698 
C424     C      0.934430000000     0.954950000000     0.124800000000    -0.0726251  
C425     C      0.914750000000     0.483940000000     0.124770000000    -0.00568347 
C426     C      0.929540000000     0.515330000000     0.124700000000    -0.00620293 
C427     C      0.964290000000     0.518330000000     0.124630000000    -0.0725667  
C428     C      0.483970000000     0.989340000000     0.124470000000    -0.00572906 
C429     C      0.543640000000     0.612780000000     0.975110000000    -0.00523812 
C430     C      0.567130000000     0.587650000000     0.968980000000    -0.0751082  
C431     C      0.583690000000     0.572610000000     0.995320000000    -0.00451225 
C432     C      0.575660000000     0.581320000000     0.027320000000    -0.00519541 
C433     C      0.550470000000     0.604750000000     0.033470000000    -0.0751964  
C434     C      0.535140000000     0.621030000000     0.007120000000    -0.00452544 
C435     C      0.854000000000     0.859660000000     0.975920000000    -0.00512127 
C436     C      0.830570000000     0.884850000000     0.969760000000    -0.0753147  
C437     C      0.814280000000     0.900170000000     0.996100000000    -0.00445015 
C438     C      0.822540000000     0.891670000000     0.028120000000    -0.00530709 
C439     C      0.847670000000     0.868180000000     0.034260000000    -0.0749876  
C440     C      0.862710000000     0.851620000000     0.007930000000    -0.00462333 
C441     C      0.701730000000     0.951270000000     0.874130000000    -0.00583223 
C442     C      0.730520000000     0.970960000000     0.874170000000    -0.0724616  
C443     C      0.727170000000     0.505710000000     0.873930000000    -0.00622582 
C444     C      0.695630000000     0.520490000000     0.873860000000    -0.0056343  
C445     C      0.666840000000     0.500810000000     0.874030000000    -0.0726286  
C446     C      0.670190000000     0.966060000000     0.874070000000    -0.00605443 
C447     C      0.919990000000     0.505780000000     0.878510000000    -0.00625942 
C448     C      0.916990000000     0.971020000000     0.878600000000    -0.0726085  
C449     C      0.945980000000     0.951340000000     0.878780000000    -0.00563366 
C450     C      0.977370000000     0.966120000000     0.878690000000    -0.00626769 
C451     C      0.980370000000     0.500880000000     0.878440000000    -0.0726093  
C452     C      0.951380000000     0.520560000000     0.878450000000    -0.00565382 
C453     C      0.545720000000     0.609110000000     0.277450000000    -0.00522204 
C454     C      0.569050000000     0.634210000000     0.283400000000    -0.0752082  
C455     C      0.585160000000     0.649330000000     0.256920000000    -0.00460737 
C456     C      0.576800000000     0.640730000000     0.224980000000    -0.00510179 
C457     C      0.551730000000     0.617370000000     0.219040000000    -0.0752984  
C458     C      0.536900000000     0.600990000000     0.245510000000    -0.00443015 
C459     C      0.854260000000     0.863270000000     0.278260000000    -0.00530816 
C460     C      0.830890000000     0.838200000000     0.284190000000    -0.0751371  
C461     C      0.814510000000     0.823370000000     0.257720000000    -0.00456338 
C462     C      0.822640000000     0.832200000000     0.225790000000    -0.00508567 
C463     C      0.847740000000     0.855530000000     0.219840000000    -0.075387   
C464     C      0.862850000000     0.871630000000     0.246320000000    -0.0043868  
C465     C      0.728850000000     0.716010000000     0.378530000000    -0.00607553 
C466     C      0.731860000000     0.750760000000     0.378590000000    -0.0727128  
C467     C      0.702860000000     0.770440000000     0.378760000000    -0.00562925 
C468     C      0.671480000000     0.755660000000     0.378680000000    -0.00624062 
C469     C      0.668470000000     0.720910000000     0.378440000000    -0.0724951  
C470     C      0.697470000000     0.701220000000     0.378460000000    -0.00580252 
C471     C      0.921680000000     0.716070000000     0.373920000000    -0.00615439 
C472     C      0.918320000000     0.750830000000     0.374180000000    -0.0727434  
C473     C      0.947120000000     0.770510000000     0.374150000000    -0.00565333 
C474     C      0.978650000000     0.755730000000     0.374080000000    -0.00612782 
C475     C      0.982010000000     0.720970000000     0.374020000000    -0.0726783  
C476     C      0.953210000000     0.701290000000     0.373840000000    -0.00564251 
C477     C      0.613690000000     0.600730000000     0.507130000000    -0.00447792 
C478     C      0.598370000000     0.617020000000     0.533480000000    -0.0752834  
C479     C      0.573190000000     0.640450000000     0.527320000000    -0.00514863 
C480     C      0.565150000000     0.649170000000     0.495310000000    -0.00452856 
C481     C      0.581710000000     0.634130000000     0.468980000000    -0.0751564  
C482     C      0.605200000000     0.608990000000     0.475120000000    -0.00528299 
C483     C      0.611950000000     0.620790000000     0.745520000000    -0.00453214 
C484     C      0.597120000000     0.604410000000     0.719050000000    -0.0751618  
C485     C      0.572040000000     0.581040000000     0.724980000000    -0.00529056 
C486     C      0.563680000000     0.572460000000     0.756920000000    -0.00443931 
C487     C      0.579790000000     0.587570000000     0.783400000000    -0.0752749  
C488     C      0.603120000000     0.612670000000     0.777450000000    -0.0051427  
C489     C      0.786130000000     0.870150000000     0.507920000000    -0.00439733 
C490     C      0.801170000000     0.853590000000     0.534260000000    -0.0753641  
C491     C      0.826310000000     0.830100000000     0.528120000000    -0.00517246 
C492     C      0.834570000000     0.821610000000     0.496110000000    -0.00454141 
C493     C      0.818280000000     0.836930000000     0.469760000000    -0.0752023  
C494     C      0.794840000000     0.862120000000     0.475910000000    -0.00527206 
C495     C      0.794590000000     0.858500000000     0.778250000000    -0.00519571 
C496     C      0.817950000000     0.883580000000     0.784190000000    -0.0752054  
C497     C      0.834330000000     0.898410000000     0.757720000000    -0.00449917 
C498     C      0.826210000000     0.889580000000     0.725790000000    -0.00519935 
C499     C      0.801110000000     0.866250000000     0.719830000000    -0.0751633  
C500     C      0.786000000000     0.850140000000     0.746310000000    -0.00452894 
C501     C      0.734090000000     0.737820000000     0.624780000000    -0.00572209 
C502     C      0.714410000000     0.766820000000     0.624800000000    -0.0726017  
C503     C      0.679660000000     0.763810000000     0.624550000000    -0.00615133 
C504     C      0.664870000000     0.732430000000     0.624460000000    -0.0056834  
C505     C      0.684550000000     0.703430000000     0.624640000000    -0.0726686  
C506     C      0.719310000000     0.706440000000     0.624720000000    -0.00613986 
C507     C      0.719240000000     0.513610000000     0.629310000000    -0.00614023 
C508     C      0.684490000000     0.516970000000     0.629060000000    -0.0727088  
C509     C      0.664800000000     0.988170000000     0.629090000000    -0.00565331 
C510     C      0.679580000000     0.956640000000     0.629160000000    -0.00622151 
C511     C      0.714340000000     0.953290000000     0.629210000000    -0.0725279  
C512     C      0.734020000000     0.482080000000     0.629390000000    -0.00566238 
H1       H      0.010920000000     0.231800000000     0.128930000000     0.0512563  
H2       H      0.413800000000     0.186430000000     0.129280000000     0.0521204  
H3       H      0.387940000000     0.241480000000     0.129440000000     0.0512842  
H4       H      0.485060000000     0.286850000000     0.129060000000     0.0520973  
H5       H      0.484990000000     0.436070000000     0.124560000000     0.0521028  
H6       H      0.387870000000     0.982420000000     0.124940000000     0.0512627  
H7       H      0.413740000000     0.037210000000     0.124810000000     0.0521123  
H8       H      0.010850000000     0.490860000000     0.124400000000     0.0512689  
H9       H      0.030480000000     0.124730000000     0.955250000000     0.0503437  
H10      H      0.102030000000     0.053240000000     0.991220000000     0.0495674  
H11      H      0.087820000000     0.068360000000     0.047180000000     0.0503973  
H12      H      0.015720000000     0.139320000000     0.011230000000     0.0495596  
H13      H      0.366960000000     0.347500000000     0.956060000000     0.0503692  
H14      H      0.296000000000     0.419590000000     0.991990000000     0.0495359  
H15      H      0.310590000000     0.404840000000     0.047970000000     0.050361   
H16      H      0.382080000000     0.333290000000     0.012030000000     0.0496015  
H17      H      0.203520000000     0.424400000000     0.874300000000     0.0513171  
H18      H      0.248890000000     0.021520000000     0.873940000000     0.0521207  
H19      H      0.193840000000     0.047370000000     0.873800000000     0.0512824  
H20      H      0.148460000000     0.450260000000     0.874180000000     0.0520954  
H21      H      0.398100000000     0.021580000000     0.878390000000     0.0520875  
H22      H      0.444460000000     0.424460000000     0.878860000000     0.0513181  
H23      H      0.999250000000     0.450320000000     0.878700000000     0.0520893  
H24      H      0.452900000000     0.047440000000     0.878270000000     0.0512794  
H25      H      0.032900000000     0.097110000000     0.297410000000     0.0503869  
H26      H      0.103360000000     0.168670000000     0.260880000000     0.0495156  
H27      H      0.088580000000     0.153760000000     0.205020000000     0.0503414  
H28      H      0.017580000000     0.082750000000     0.241560000000     0.049534   
H29      H      0.367280000000     0.375060000000     0.298220000000     0.0503511  
H30      H      0.296270000000     0.304060000000     0.261660000000     0.0495473  
H31      H      0.310640000000     0.319380000000     0.205820000000     0.0503591  
H32      H      0.382200000000     0.389830000000     0.242370000000     0.0494926  
H33      H      0.250740000000     0.200210000000     0.378420000000     0.0520658  
H34      H      0.204390000000     0.297320000000     0.378830000000     0.0512928  
H35      H      0.149590000000     0.271460000000     0.378680000000     0.0520925  
H36      H      0.195940000000     0.174350000000     0.378300000000     0.0513014  
H37      H      0.399950000000     0.200270000000     0.373920000000     0.0520743  
H38      H      0.445320000000     0.297390000000     0.374330000000     0.0512604  
H39      H      0.000380000000     0.271530000000     0.374210000000     0.0520813  
H40      H      0.455000000000     0.174410000000     0.373770000000     0.0513162  
H41      H      0.133110000000     0.082450000000     0.511250000000     0.0495161  
H42      H      0.061030000000     0.153410000000     0.547180000000     0.0503626  
H43      H      0.046820000000     0.168550000000     0.491210000000     0.0495827  
H44      H      0.118360000000     0.097050000000     0.455270000000     0.0503762  
H45      H      0.131270000000     0.139020000000     0.741570000000     0.0495451  
H46      H      0.060260000000     0.068020000000     0.705020000000     0.0503707  
H47      H      0.045480000000     0.053110000000     0.760870000000     0.0495037  
H48      H      0.115950000000     0.124670000000     0.797420000000     0.0503727  
H49      H      0.266750000000     0.388480000000     0.512020000000     0.0495583  
H50      H      0.338260000000     0.316940000000     0.547970000000     0.0503536  
H51      H      0.352850000000     0.302190000000     0.491990000000     0.0495571  
H52      H      0.281880000000     0.374280000000     0.456050000000     0.050395   
H53      H      0.281560000000     0.346720000000     0.798220000000     0.0503194  
H54      H      0.352560000000     0.417730000000     0.761670000000     0.0495347  
H55      H      0.338200000000     0.402400000000     0.705820000000     0.0504083  
H56      H      0.266650000000     0.331940000000     0.742360000000     0.0495439  
H57      H      0.260970000000     0.239350000000     0.624950000000     0.0512893  
H58      H      0.163850000000     0.285700000000     0.624540000000     0.0520973  
H59      H      0.137990000000     0.230900000000     0.624390000000     0.0513065  
H60      H      0.235110000000     0.184550000000     0.624840000000     0.0520921  
H61      H      0.235040000000     0.035340000000     0.629310000000     0.0520811  
H62      H      0.137920000000     0.489970000000     0.628920000000     0.0512812  
H63      H      0.163780000000     0.434910000000     0.629030000000     0.0520807  
H64      H      0.260900000000     0.980290000000     0.629450000000     0.0513047  
H65      H      0.010920000000     0.731800000000     0.128930000000     0.0512544  
H66      H      0.413800000000     0.686430000000     0.129280000000     0.0521157  
H67      H      0.387940000000     0.741480000000     0.129440000000     0.051295   
H68      H      0.485060000000     0.786850000000     0.129060000000     0.0520994  
H69      H      0.484990000000     0.936070000000     0.124560000000     0.0520979  
H70      H      0.387870000000     0.482420000000     0.124940000000     0.0512691  
H71      H      0.413740000000     0.537210000000     0.124810000000     0.0521003  
H72      H      0.010850000000     0.990860000000     0.124400000000     0.0512806  
H73      H      0.030480000000     0.624730000000     0.955250000000     0.0503424  
H74      H      0.102030000000     0.553240000000     0.991220000000     0.0495636  
H75      H      0.087820000000     0.568370000000     0.047180000000     0.0504106  
H76      H      0.015720000000     0.639320000000     0.011230000000     0.049561   
H77      H      0.366960000000     0.847500000000     0.956060000000     0.0503678  
H78      H      0.296000000000     0.919590000000     0.991990000000     0.0495268  
H79      H      0.310590000000     0.904840000000     0.047970000000     0.0503796  
H80      H      0.382080000000     0.833290000000     0.012030000000     0.0496002  
H81      H      0.203520000000     0.924400000000     0.874290000000     0.0513346  
H82      H      0.248890000000     0.521520000000     0.873940000000     0.0521108  
H83      H      0.193840000000     0.547370000000     0.873800000000     0.0512883  
H84      H      0.148460000000     0.950250000000     0.874180000000     0.0520511  
H85      H      0.398100000000     0.521580000000     0.878390000000     0.0521123  
H86      H      0.444460000000     0.924460000000     0.878860000000     0.0512862  
H87      H      0.999250000000     0.950320000000     0.878700000000     0.0521237  
H88      H      0.452900000000     0.547440000000     0.878270000000     0.0512642  
H89      H      0.032900000000     0.597110000000     0.297410000000     0.0503894  
H90      H      0.103360000000     0.668670000000     0.260880000000     0.049515   
H91      H      0.088580000000     0.653760000000     0.205020000000     0.0503444  
H92      H      0.017580000000     0.582750000000     0.241560000000     0.049529   
H93      H      0.367280000000     0.875060000000     0.298220000000     0.050363   
H94      H      0.296270000000     0.804060000000     0.261660000000     0.0495524  
H95      H      0.310640000000     0.819380000000     0.205820000000     0.0503688  
H96      H      0.382200000000     0.889830000000     0.242370000000     0.0494925  
H97      H      0.250740000000     0.700210000000     0.378420000000     0.0520633  
H98      H      0.204390000000     0.797320000000     0.378830000000     0.0512867  
H99      H      0.149590000000     0.771460000000     0.378680000000     0.0521089  
H100     H      0.195940000000     0.674340000000     0.378300000000     0.0513019  
H101     H      0.399950000000     0.700270000000     0.373920000000     0.0520792  
H102     H      0.445320000000     0.797390000000     0.374330000000     0.0512665  
H103     H      0.000380000000     0.771530000000     0.374210000000     0.0520691  
H104     H      0.455000000000     0.674410000000     0.373770000000     0.0513094  
H105     H      0.133110000000     0.582450000000     0.511250000000     0.0495421  
H106     H      0.061030000000     0.653410000000     0.547180000000     0.0503787  
H107     H      0.046820000000     0.668550000000     0.491210000000     0.0495767  
H108     H      0.118360000000     0.597050000000     0.455270000000     0.0503653  
H109     H      0.131270000000     0.639020000000     0.741570000000     0.0495329  
H110     H      0.060260000000     0.568020000000     0.705020000000     0.0503613  
H111     H      0.045480000000     0.553110000000     0.760870000000     0.0495074  
H112     H      0.115950000000     0.624660000000     0.797420000000     0.0503872  
H113     H      0.266750000000     0.888480000000     0.512020000000     0.0495478  
H114     H      0.338260000000     0.816940000000     0.547970000000     0.0503458  
H115     H      0.352850000000     0.802190000000     0.491990000000     0.0495601  
H116     H      0.281880000000     0.874280000000     0.456050000000     0.0503985  
H117     H      0.281560000000     0.846720000000     0.798220000000     0.0503345  
H118     H      0.352560000000     0.917730000000     0.761670000000     0.0495378  
H119     H      0.338200000000     0.902400000000     0.705820000000     0.0504004  
H120     H      0.266650000000     0.831940000000     0.742360000000     0.0495414  
H121     H      0.260970000000     0.739350000000     0.624950000000     0.0512783  
H122     H      0.163850000000     0.785700000000     0.624540000000     0.0520904  
H123     H      0.137990000000     0.730900000000     0.624390000000     0.0513117  
H124     H      0.235110000000     0.684550000000     0.624840000000     0.0520955  
H125     H      0.235040000000     0.535340000000     0.629310000000     0.0520892  
H126     H      0.137920000000     0.989970000000     0.628920000000     0.0512717  
H127     H      0.163780000000     0.934910000000     0.629030000000     0.0520987  
H128     H      0.260900000000     0.480290000000     0.629450000000     0.0512867  
H129     H      0.510920000000     0.231800000000     0.128930000000     0.0512806  
H130     H      0.913800000000     0.186430000000     0.129290000000     0.0521183  
H131     H      0.887940000000     0.241480000000     0.129440000000     0.0512884  
H132     H      0.985060000000     0.286850000000     0.129060000000     0.0521083  
H133     H      0.984990000000     0.436070000000     0.124560000000     0.0521147  
H134     H      0.887870000000     0.982420000000     0.124940000000     0.0512666  
H135     H      0.913740000000     0.037210000000     0.124810000000     0.0521105  
H136     H      0.510850000000     0.490860000000     0.124400000000     0.0512934  
H137     H      0.530480000000     0.124730000000     0.955250000000     0.0503489  
H138     H      0.602030000000     0.053240000000     0.991220000000     0.049573   
H139     H      0.587820000000     0.068360000000     0.047190000000     0.0503904  
H140     H      0.515720000000     0.139320000000     0.011230000000     0.0495616  
H141     H      0.866960000000     0.347500000000     0.956060000000     0.0503685  
H142     H      0.796000000000     0.419590000000     0.991990000000     0.0495354  
H143     H      0.810590000000     0.404840000000     0.047970000000     0.0503637  
H144     H      0.882080000000     0.333290000000     0.012030000000     0.0496059  
H145     H      0.703520000000     0.424400000000     0.874300000000     0.051309   
H146     H      0.748890000000     0.021510000000     0.873940000000     0.0521378  
H147     H      0.693840000000     0.047370000000     0.873800000000     0.0512804  
H148     H      0.648460000000     0.450260000000     0.874180000000     0.0521011  
H149     H      0.898100000000     0.021580000000     0.878390000000     0.0520874  
H150     H      0.944460000000     0.424460000000     0.878860000000     0.0513188  
H151     H      0.499250000000     0.450320000000     0.878700000000     0.0520792  
H152     H      0.952900000000     0.047440000000     0.878270000000     0.0512882  
H153     H      0.532900000000     0.097110000000     0.297410000000     0.0504016  
H154     H      0.603350000000     0.168680000000     0.260880000000     0.0495426  
H155     H      0.588580000000     0.153760000000     0.205020000000     0.0503305  
H156     H      0.517580000000     0.082750000000     0.241560000000     0.0495148  
H157     H      0.867280000000     0.375060000000     0.298220000000     0.0503528  
H158     H      0.796270000000     0.304060000000     0.261660000000     0.0495479  
H159     H      0.810640000000     0.319380000000     0.205820000000     0.050359   
H160     H      0.882200000000     0.389830000000     0.242370000000     0.0494943  
H161     H      0.750740000000     0.200210000000     0.378420000000     0.0520611  
H162     H      0.704390000000     0.297320000000     0.378830000000     0.0512924  
H163     H      0.649590000000     0.271460000000     0.378680000000     0.0520946  
H164     H      0.695940000000     0.174350000000     0.378300000000     0.051312   
H165     H      0.899950000000     0.200270000000     0.373920000000     0.0520857  
H166     H      0.945320000000     0.297390000000     0.374330000000     0.0512725  
H167     H      0.500380000000     0.271530000000     0.374210000000     0.0521084  
H168     H      0.955000000000     0.174410000000     0.373770000000     0.0513048  
H169     H      0.633110000000     0.082450000000     0.511250000000     0.049541   
H170     H      0.561030000000     0.153410000000     0.547180000000     0.0503892  
H171     H      0.546820000000     0.168550000000     0.491210000000     0.0495609  
H172     H      0.618360000000     0.097050000000     0.455270000000     0.050358   
H173     H      0.631270000000     0.139020000000     0.741570000000     0.0495517  
H174     H      0.560260000000     0.068020000000     0.705020000000     0.0503767  
H175     H      0.545480000000     0.053110000000     0.760870000000     0.0495041  
H176     H      0.615950000000     0.124670000000     0.797420000000     0.0503715  
H177     H      0.766750000000     0.388480000000     0.512020000000     0.0495316  
H178     H      0.838260000000     0.316940000000     0.547970000000     0.0503332  
H179     H      0.852850000000     0.302190000000     0.491990000000     0.0495654  
H180     H      0.781880000000     0.374280000000     0.456050000000     0.0504093  
H181     H      0.781570000000     0.346720000000     0.798220000000     0.050334   
H182     H      0.852560000000     0.417730000000     0.761670000000     0.0495381  
H183     H      0.838200000000     0.402400000000     0.705820000000     0.0504092  
H184     H      0.766650000000     0.331940000000     0.742360000000     0.0495408  
H185     H      0.760970000000     0.239350000000     0.624950000000     0.0512997  
H186     H      0.663850000000     0.285700000000     0.624540000000     0.0520874  
H187     H      0.637990000000     0.230900000000     0.624390000000     0.0512973  
H188     H      0.735110000000     0.184550000000     0.624840000000     0.052075   
H189     H      0.735040000000     0.035340000000     0.629310000000     0.0520798  
H190     H      0.637920000000     0.489970000000     0.628920000000     0.0512805  
H191     H      0.663780000000     0.434910000000     0.629030000000     0.0520863  
H192     H      0.760900000000     0.980290000000     0.629450000000     0.0513118  
H193     H      0.510920000000     0.731800000000     0.128930000000     0.051279   
H194     H      0.913800000000     0.686430000000     0.129290000000     0.0521136  
H195     H      0.887940000000     0.741480000000     0.129440000000     0.0512992  
H196     H      0.985060000000     0.786850000000     0.129060000000     0.0521103  
H197     H      0.984990000000     0.936070000000     0.124560000000     0.0521089  
H198     H      0.887870000000     0.482410000000     0.124940000000     0.0512809  
H199     H      0.913740000000     0.537210000000     0.124810000000     0.0520981  
H200     H      0.510850000000     0.990860000000     0.124400000000     0.051305   
H201     H      0.530480000000     0.624730000000     0.955250000000     0.0503506  
H202     H      0.602030000000     0.553230000000     0.991220000000     0.0495622  
H203     H      0.587820000000     0.568360000000     0.047190000000     0.0503919  
H204     H      0.515720000000     0.639310000000     0.011230000000     0.0495583  
H205     H      0.866960000000     0.847500000000     0.956060000000     0.0503699  
H206     H      0.796000000000     0.919590000000     0.991990000000     0.0495336  
H207     H      0.810590000000     0.904840000000     0.047970000000     0.0503652  
H208     H      0.882080000000     0.833290000000     0.012030000000     0.0496011  
H209     H      0.703520000000     0.924400000000     0.874290000000     0.0513286  
H210     H      0.748890000000     0.521520000000     0.873940000000     0.0521097  
H211     H      0.693840000000     0.547370000000     0.873800000000     0.0512904  
H212     H      0.648460000000     0.950250000000     0.874180000000     0.0520553  
H213     H      0.898100000000     0.521580000000     0.878390000000     0.0521122  
H214     H      0.944460000000     0.924460000000     0.878860000000     0.0512868  
H215     H      0.499250000000     0.950320000000     0.878700000000     0.0521137  
H216     H      0.952900000000     0.547440000000     0.878270000000     0.051273   
H217     H      0.532900000000     0.597110000000     0.297410000000     0.0504037  
H218     H      0.603350000000     0.668670000000     0.260880000000     0.0495548  
H219     H      0.588580000000     0.653760000000     0.205020000000     0.0503265  
H220     H      0.517580000000     0.582750000000     0.241560000000     0.0495128  
H221     H      0.867280000000     0.875050000000     0.298220000000     0.0503766  
H222     H      0.796270000000     0.804060000000     0.261660000000     0.0495544  
H223     H      0.810640000000     0.819380000000     0.205820000000     0.0503675  
H224     H      0.882200000000     0.889830000000     0.242370000000     0.0494914  
H225     H      0.750740000000     0.700210000000     0.378420000000     0.0520587  
H226     H      0.704390000000     0.797320000000     0.378830000000     0.0512864  
H227     H      0.649590000000     0.771460000000     0.378680000000     0.052111   
H228     H      0.695940000000     0.674340000000     0.378300000000     0.0513124  
H229     H      0.899950000000     0.700270000000     0.373920000000     0.0520906  
H230     H      0.945320000000     0.797390000000     0.374330000000     0.0512786  
H231     H      0.500380000000     0.771530000000     0.374210000000     0.0520962  
H232     H      0.955000000000     0.674410000000     0.373770000000     0.051298   
H233     H      0.633110000000     0.582450000000     0.511250000000     0.0495446  
H234     H      0.561030000000     0.653410000000     0.547180000000     0.0503829  
H235     H      0.546820000000     0.668550000000     0.491210000000     0.0495657  
H236     H      0.618360000000     0.597050000000     0.455270000000     0.0503578  
H237     H      0.631270000000     0.639020000000     0.741570000000     0.0495486  
H238     H      0.560260000000     0.568020000000     0.705020000000     0.0503738  
H239     H      0.545480000000     0.553110000000     0.760870000000     0.049505   
H240     H      0.615950000000     0.624660000000     0.797420000000     0.0503833  
H241     H      0.766750000000     0.888480000000     0.512020000000     0.0495301  
H242     H      0.838260000000     0.816940000000     0.547970000000     0.0503318  
H243     H      0.852850000000     0.802190000000     0.491990000000     0.0495658  
H244     H      0.781880000000     0.874280000000     0.456050000000     0.0504103  
H245     H      0.781570000000     0.846720000000     0.798220000000     0.050349   
H246     H      0.852560000000     0.917730000000     0.761670000000     0.0495411  
H247     H      0.838200000000     0.902400000000     0.705820000000     0.0504016  
H248     H      0.766650000000     0.831940000000     0.742360000000     0.0495387  
H249     H      0.760970000000     0.739350000000     0.624950000000     0.0512886  
H250     H      0.663850000000     0.785700000000     0.624540000000     0.0520801  
H251     H      0.637990000000     0.730900000000     0.624390000000     0.0513019  
H252     H      0.735110000000     0.684550000000     0.624840000000     0.052078   
H253     H      0.735040000000     0.535340000000     0.629310000000     0.0520879  
H254     H      0.637920000000     0.989970000000     0.628920000000     0.0512708  
H255     H      0.663780000000     0.934910000000     0.629030000000     0.052104   
H256     H      0.760900000000     0.480290000000     0.629450000000     0.0512941  
In1      In     0.259840000000     0.359840000000     0.627050000000     2.42095    
In2      In     0.139060000000     0.110440000000     0.626530000000     2.42114    
In3      In     0.324850000000     0.296260000000     0.376710000000     2.42142    
In4      In     0.075450000000     0.175480000000     0.376180000000     2.42141    
In5      In     0.323990000000     0.425530000000     0.876700000000     2.42136    
In6      In     0.073400000000     0.046310000000     0.876180000000     2.42113    
In7      In     0.009790000000     0.111330000000     0.126520000000     2.42112    
In8      In     0.389000000000     0.361920000000     0.127070000000     2.42135    
In9      In     0.259840000000     0.859840000000     0.627050000000     2.42117    
In10     In     0.139060000000     0.610440000000     0.626530000000     2.4213     
In11     In     0.324850000000     0.796260000000     0.376710000000     2.42125    
In12     In     0.075450000000     0.675480000000     0.376180000000     2.42137    
In13     In     0.323990000000     0.925530000000     0.876700000000     2.4214     
In14     In     0.073400000000     0.546310000000     0.876180000000     2.42113    
In15     In     0.009790000000     0.611330000000     0.126520000000     2.42113    
In16     In     0.389000000000     0.861920000000     0.127070000000     2.4213     
In17     In     0.759840000000     0.359840000000     0.627050000000     2.4212     
In18     In     0.639060000000     0.110440000000     0.626530000000     2.42118    
In19     In     0.824850000000     0.296260000000     0.376710000000     2.42142    
In20     In     0.575450000000     0.175480000000     0.376180000000     2.42155    
In21     In     0.823990000000     0.425530000000     0.876700000000     2.42136    
In22     In     0.573400000000     0.046310000000     0.876180000000     2.42113    
In23     In     0.509790000000     0.111330000000     0.126520000000     2.42115    
In24     In     0.889010000000     0.361920000000     0.127070000000     2.42136    
In25     In     0.759840000000     0.859840000000     0.627050000000     2.4212     
In26     In     0.639060000000     0.610440000000     0.626530000000     2.42112    
In27     In     0.824850000000     0.796260000000     0.376710000000     2.42125    
In28     In     0.575450000000     0.675480000000     0.376180000000     2.4215     
In29     In     0.823990000000     0.925530000000     0.876700000000     2.4214     
In30     In     0.573400000000     0.546310000000     0.876180000000     2.42113    
In31     In     0.509790000000     0.611330000000     0.126520000000     2.42116    
In32     In     0.889010000000     0.861920000000     0.127070000000     2.42131    
O1       O      0.261280000000     0.416230000000     0.628480000000    -0.491249   
O2       O      0.213700000000     0.393290000000     0.628180000000    -0.473521   
O3       O      0.303430000000     0.348680000000     0.592750000000    -0.478537   
O4       O      0.303440000000     0.370630000000     0.661310000000    -0.47864    
O5       O      0.213740000000     0.326820000000     0.625840000000    -0.473767   
O6       O      0.259010000000     0.351090000000     0.681630000000    -0.496908   
O7       O      0.259020000000     0.368820000000     0.572520000000    -0.497087   
O8       O      0.261340000000     0.303420000000     0.625710000000    -0.491143   
O9       O      0.185190000000     0.143430000000     0.625680000000    -0.473585   
O10      O      0.137600000000     0.166850000000     0.625150000000    -0.49119    
O11      O      0.139480000000     0.119370000000     0.681080000000    -0.497015   
O12      O      0.095680000000     0.121600000000     0.591970000000    -0.478728   
O13      O      0.185150000000     0.076960000000     0.628010000000    -0.473811   
O14      O      0.140260000000     0.101630000000     0.571980000000    -0.497354   
O15      O      0.095230000000     0.099670000000     0.660530000000    -0.478344   
O16      O      0.137560000000     0.054040000000     0.627940000000    -0.49124    
O17      O      0.381250000000     0.297750000000     0.375310000000    -0.49128    
O18      O      0.358330000000     0.250160000000     0.375220000000    -0.473705   
O19      O      0.313690000000     0.339630000000     0.411260000000    -0.478734   
O20      O      0.335620000000     0.340080000000     0.342710000000    -0.478603   
O21      O      0.291860000000     0.250130000000     0.377570000000    -0.473728   
O22      O      0.315920000000     0.295840000000     0.322160000000    -0.497161   
O23      O      0.333670000000     0.295050000000     0.431260000000    -0.497296   
O24      O      0.268440000000     0.297710000000     0.378080000000    -0.491279   
O25      O      0.019060000000     0.174030000000     0.374750000000    -0.491242   
O26      O      0.042000000000     0.221610000000     0.375050000000    -0.473655   
O27      O      0.086610000000     0.131880000000     0.410480000000    -0.478544   
O28      O      0.064660000000     0.131880000000     0.341920000000    -0.478671   
O29      O      0.108470000000     0.221570000000     0.377390000000    -0.474013   
O30      O      0.084190000000     0.176310000000     0.321610000000    -0.497196   
O31      O      0.066470000000     0.176280000000     0.430710000000    -0.497176   
O32      O      0.131870000000     0.173980000000     0.377540000000    -0.491355   
O33      O      0.267590000000     0.424030000000     0.875290000000    -0.491132   
O34      O      0.290510000000     0.471630000000     0.875230000000    -0.473723   
O35      O      0.335150000000     0.382160000000     0.911260000000    -0.478707   
O36      O      0.313220000000     0.381700000000     0.842710000000    -0.478486   
O37      O      0.356980000000     0.471660000000     0.877560000000    -0.473579   
O38      O      0.332920000000     0.425950000000     0.822170000000    -0.497266   
O39      O      0.315180000000     0.426740000000     0.931260000000    -0.497027   
O40      O      0.380400000000     0.424070000000     0.878100000000    -0.491153   
O41      O      0.129790000000     0.047750000000     0.874770000000    -0.491322   
O42      O      0.106840000000     0.000170000000     0.875050000000    -0.473475   
O43      O      0.062230000000     0.089900000000     0.910480000000    -0.478568   
O44      O      0.084190000000     0.089910000000     0.841920000000    -0.478599   
O45      O      0.040370000000     0.000210000000     0.877400000000    -0.473657   
O46      O      0.064640000000     0.045480000000     0.821610000000    -0.497112   
O47      O      0.082380000000     0.045500000000     0.930710000000    -0.49717    
O48      O      0.016980000000     0.047810000000     0.877520000000    -0.491245   
O49      O      0.011240000000     0.054920000000     0.125140000000    -0.491187   
O50      O      0.463650000000     0.078340000000     0.125650000000    -0.473419   
O51      O      0.053610000000     0.122100000000     0.160530000000    -0.478572   
O52      O      0.053160000000     0.100160000000     0.091970000000    -0.478655   
O53      O      0.463690000000     0.144800000000     0.127990000000    -0.473727   
O54      O      0.008580000000     0.120140000000     0.071960000000    -0.497132   
O55      O      0.009360000000     0.102400000000     0.181060000000    -0.497186   
O56      O      0.011280000000     0.167730000000     0.127930000000    -0.49125    
O57      O      0.387560000000     0.305530000000     0.128480000000    -0.491231   
O58      O      0.435140000000     0.328480000000     0.128200000000    -0.473517   
O59      O      0.345410000000     0.373090000000     0.092760000000    -0.478442   
O60      O      0.345410000000     0.351140000000     0.161320000000    -0.478983   
O61      O      0.435100000000     0.394950000000     0.125860000000    -0.473715   
O62      O      0.389830000000     0.370670000000     0.181640000000    -0.497393   
O63      O      0.389820000000     0.352940000000     0.072540000000    -0.496962   
O64      O      0.387500000000     0.418340000000     0.125710000000    -0.491164   
O65      O      0.261280000000     0.916240000000     0.628480000000    -0.491089   
O66      O      0.213700000000     0.893290000000     0.628180000000    -0.473514   
O67      O      0.303430000000     0.848680000000     0.592750000000    -0.47857    
O68      O      0.303440000000     0.870630000000     0.661310000000    -0.478668   
O69      O      0.213740000000     0.826820000000     0.625840000000    -0.473785   
O70      O      0.259010000000     0.851090000000     0.681630000000    -0.496927   
O71      O      0.259020000000     0.868820000000     0.572530000000    -0.497228   
O72      O      0.261340000000     0.803430000000     0.625710000000    -0.491313   
O73      O      0.185190000000     0.643430000000     0.625680000000    -0.473588   
O74      O      0.137600000000     0.666850000000     0.625150000000    -0.491182   
O75      O      0.139480000000     0.619370000000     0.681070000000    -0.497178   
O76      O      0.095680000000     0.621610000000     0.591970000000    -0.478656   
O77      O      0.185150000000     0.576960000000     0.628010000000    -0.473819   
O78      O      0.140260000000     0.601630000000     0.571980000000    -0.497344   
O79      O      0.095230000000     0.599670000000     0.660530000000    -0.478368   
O80      O      0.137560000000     0.554040000000     0.627940000000    -0.49126    
O81      O      0.381250000000     0.797750000000     0.375310000000    -0.491277   
O82      O      0.358330000000     0.750160000000     0.375220000000    -0.473688   
O83      O      0.313690000000     0.839630000000     0.411260000000    -0.478723   
O84      O      0.335620000000     0.840090000000     0.342710000000    -0.478378   
O85      O      0.291860000000     0.750130000000     0.377570000000    -0.473712   
O86      O      0.315920000000     0.795840000000     0.322160000000    -0.4971     
O87      O      0.333670000000     0.795050000000     0.431260000000    -0.497277   
O88      O      0.268440000000     0.797710000000     0.378080000000    -0.491266   
O89      O      0.019060000000     0.674030000000     0.374750000000    -0.491254   
O90      O      0.042000000000     0.721610000000     0.375050000000    -0.473671   
O91      O      0.086610000000     0.631880000000     0.410480000000    -0.478538   
O92      O      0.064660000000     0.631880000000     0.341920000000    -0.478664   
O93      O      0.108470000000     0.721570000000     0.377390000000    -0.473926   
O94      O      0.084190000000     0.676310000000     0.321610000000    -0.497193   
O95      O      0.066470000000     0.676280000000     0.430710000000    -0.497175   
O96      O      0.131870000000     0.673970000000     0.377540000000    -0.491168   
O97      O      0.267590000000     0.924030000000     0.875290000000    -0.491234   
O98      O      0.290510000000     0.971630000000     0.875230000000    -0.473687   
O99      O      0.335150000000     0.882160000000     0.911260000000    -0.478715   
O100     O      0.313220000000     0.881700000000     0.842710000000    -0.478486   
O101     O      0.356980000000     0.971660000000     0.877560000000    -0.473675   
O102     O      0.332920000000     0.925950000000     0.822170000000    -0.497268   
O103     O      0.315180000000     0.926740000000     0.931260000000    -0.497033   
O104     O      0.380400000000     0.924080000000     0.878100000000    -0.491346   
O105     O      0.129790000000     0.547750000000     0.874770000000    -0.491318   
O106     O      0.106840000000     0.500170000000     0.875050000000    -0.473472   
O107     O      0.062230000000     0.589900000000     0.910480000000    -0.478568   
O108     O      0.084190000000     0.589910000000     0.841920000000    -0.478598   
O109     O      0.040370000000     0.500210000000     0.877400000000    -0.473666   
O110     O      0.064640000000     0.545480000000     0.821610000000    -0.49711    
O111     O      0.082380000000     0.545500000000     0.930710000000    -0.497171   
O112     O      0.016980000000     0.547810000000     0.877520000000    -0.491252   
O113     O      0.011240000000     0.554920000000     0.125140000000    -0.491162   
O114     O      0.463650000000     0.578340000000     0.125650000000    -0.473328   
O115     O      0.053610000000     0.622100000000     0.160530000000    -0.478577   
O116     O      0.053160000000     0.600160000000     0.091970000000    -0.478656   
O117     O      0.463690000000     0.644800000000     0.127990000000    -0.473734   
O118     O      0.008580000000     0.620140000000     0.071960000000    -0.497133   
O119     O      0.009360000000     0.602400000000     0.181060000000    -0.49719    
O120     O      0.011280000000     0.667730000000     0.127930000000    -0.491253   
O121     O      0.387560000000     0.805530000000     0.128480000000    -0.491213   
O122     O      0.435140000000     0.828480000000     0.128200000000    -0.473509   
O123     O      0.345410000000     0.873090000000     0.092760000000    -0.478446   
O124     O      0.345410000000     0.851130000000     0.161320000000    -0.478894   
O125     O      0.435100000000     0.894950000000     0.125860000000    -0.473713   
O126     O      0.389830000000     0.870670000000     0.181640000000    -0.497363   
O127     O      0.389820000000     0.852940000000     0.072540000000    -0.496957   
O128     O      0.387500000000     0.918340000000     0.125710000000    -0.491169   
O129     O      0.761280000000     0.416230000000     0.628480000000    -0.491356   
O130     O      0.713700000000     0.393290000000     0.628180000000    -0.473503   
O131     O      0.803430000000     0.348680000000     0.592750000000    -0.478632   
O132     O      0.803440000000     0.370630000000     0.661310000000    -0.478655   
O133     O      0.713740000000     0.326820000000     0.625840000000    -0.473756   
O134     O      0.759010000000     0.351090000000     0.681630000000    -0.496937   
O135     O      0.759030000000     0.368820000000     0.572530000000    -0.497431   
O136     O      0.761340000000     0.303420000000     0.625710000000    -0.491264   
O137     O      0.685190000000     0.143430000000     0.625680000000    -0.47367    
O138     O      0.637610000000     0.166850000000     0.625150000000    -0.491375   
O139     O      0.639480000000     0.119370000000     0.681080000000    -0.497104   
O140     O      0.595680000000     0.121600000000     0.591970000000    -0.478731   
O141     O      0.685150000000     0.076960000000     0.628020000000    -0.473811   
O142     O      0.640260000000     0.101630000000     0.571980000000    -0.497362   
O143     O      0.595230000000     0.099670000000     0.660530000000    -0.478314   
O144     O      0.637560000000     0.054040000000     0.627940000000    -0.491248   
O145     O      0.881250000000     0.297750000000     0.375310000000    -0.491276   
O146     O      0.858330000000     0.250160000000     0.375220000000    -0.473701   
O147     O      0.813690000000     0.339630000000     0.411260000000    -0.478733   
O148     O      0.835620000000     0.340080000000     0.342710000000    -0.478602   
O149     O      0.791860000000     0.250130000000     0.377570000000    -0.473729   
O150     O      0.815920000000     0.295840000000     0.322160000000    -0.49716    
O151     O      0.833670000000     0.295050000000     0.431260000000    -0.497294   
O152     O      0.768440000000     0.297710000000     0.378080000000    -0.49128    
O153     O      0.519060000000     0.174030000000     0.374750000000    -0.491196   
O154     O      0.542010000000     0.221610000000     0.375050000000    -0.473609   
O155     O      0.586610000000     0.131880000000     0.410480000000    -0.478594   
O156     O      0.564660000000     0.131880000000     0.341920000000    -0.478679   
O157     O      0.608470000000     0.221570000000     0.377390000000    -0.473992   
O158     O      0.584190000000     0.176310000000     0.321610000000    -0.497197   
O159     O      0.566480000000     0.176280000000     0.430710000000    -0.497285   
O160     O      0.631870000000     0.173980000000     0.377540000000    -0.491353   
O161     O      0.767590000000     0.424030000000     0.875290000000    -0.491133   
O162     O      0.790510000000     0.471630000000     0.875230000000    -0.473723   
O163     O      0.835150000000     0.382160000000     0.911260000000    -0.478707   
O164     O      0.813220000000     0.381700000000     0.842710000000    -0.478485   
O165     O      0.856980000000     0.471660000000     0.877560000000    -0.473579   
O166     O      0.832920000000     0.425950000000     0.822170000000    -0.497265   
O167     O      0.815180000000     0.426740000000     0.931260000000    -0.497027   
O168     O      0.880400000000     0.424070000000     0.878100000000    -0.491152   
O169     O      0.629790000000     0.047750000000     0.874770000000    -0.491322   
O170     O      0.606840000000     0.000170000000     0.875050000000    -0.473473   
O171     O      0.562230000000     0.089900000000     0.910480000000    -0.478563   
O172     O      0.584190000000     0.089910000000     0.841920000000    -0.4786     
O173     O      0.540370000000     0.000210000000     0.877400000000    -0.473662   
O174     O      0.564640000000     0.045480000000     0.821610000000    -0.497117   
O175     O      0.582380000000     0.045500000000     0.930710000000    -0.497164   
O176     O      0.516980000000     0.047810000000     0.877520000000    -0.491249   
O177     O      0.511240000000     0.054920000000     0.125140000000    -0.491168   
O178     O      0.963650000000     0.078340000000     0.125650000000    -0.473415   
O179     O      0.553610000000     0.122100000000     0.160530000000    -0.478579   
O180     O      0.553160000000     0.100160000000     0.091970000000    -0.478661   
O181     O      0.963690000000     0.144800000000     0.127990000000    -0.473723   
O182     O      0.508580000000     0.120140000000     0.071960000000    -0.49713    
O183     O      0.509360000000     0.102400000000     0.181060000000    -0.497186   
O184     O      0.511280000000     0.167730000000     0.127930000000    -0.491231   
O185     O      0.887560000000     0.305530000000     0.128480000000    -0.491216   
O186     O      0.935140000000     0.328480000000     0.128210000000    -0.473643   
O187     O      0.845410000000     0.373090000000     0.092760000000    -0.478288   
O188     O      0.845410000000     0.351140000000     0.161320000000    -0.478859   
O189     O      0.935100000000     0.394950000000     0.125860000000    -0.473841   
O190     O      0.889830000000     0.370670000000     0.181640000000    -0.497394   
O191     O      0.889820000000     0.352940000000     0.072540000000    -0.49708    
O192     O      0.887500000000     0.418340000000     0.125710000000    -0.491157   
O193     O      0.761280000000     0.916240000000     0.628480000000    -0.491187   
O194     O      0.713700000000     0.893290000000     0.628180000000    -0.473487   
O195     O      0.803430000000     0.848680000000     0.592750000000    -0.478646   
O196     O      0.803440000000     0.870630000000     0.661310000000    -0.478662   
O197     O      0.713740000000     0.826820000000     0.625840000000    -0.47376    
O198     O      0.759010000000     0.851090000000     0.681630000000    -0.49693    
O199     O      0.759030000000     0.868820000000     0.572530000000    -0.497406   
O200     O      0.761340000000     0.803430000000     0.625710000000    -0.491417   
O201     O      0.685190000000     0.643430000000     0.625680000000    -0.473662   
O202     O      0.637610000000     0.666850000000     0.625150000000    -0.491359   
O203     O      0.639480000000     0.619370000000     0.681080000000    -0.4971     
O204     O      0.595680000000     0.621610000000     0.591970000000    -0.478643   
O205     O      0.685150000000     0.576960000000     0.628020000000    -0.473805   
O206     O      0.640260000000     0.601630000000     0.571980000000    -0.497333   
O207     O      0.595230000000     0.599670000000     0.660530000000    -0.478319   
O208     O      0.637560000000     0.554040000000     0.627940000000    -0.49125    
O209     O      0.881250000000     0.797750000000     0.375310000000    -0.491273   
O210     O      0.858330000000     0.750160000000     0.375220000000    -0.473684   
O211     O      0.813690000000     0.839630000000     0.411260000000    -0.478722   
O212     O      0.835620000000     0.840090000000     0.342710000000    -0.478377   
O213     O      0.791860000000     0.750130000000     0.377570000000    -0.473713   
O214     O      0.815920000000     0.795840000000     0.322160000000    -0.497098   
O215     O      0.833670000000     0.795050000000     0.431260000000    -0.497275   
O216     O      0.768440000000     0.797710000000     0.378080000000    -0.491267   
O217     O      0.519060000000     0.674030000000     0.374750000000    -0.491208   
O218     O      0.542010000000     0.721610000000     0.375050000000    -0.473624   
O219     O      0.586610000000     0.631880000000     0.410480000000    -0.478585   
O220     O      0.564660000000     0.631880000000     0.341920000000    -0.478671   
O221     O      0.608470000000     0.721570000000     0.377390000000    -0.473905   
O222     O      0.584190000000     0.676310000000     0.321610000000    -0.497192   
O223     O      0.566480000000     0.676280000000     0.430710000000    -0.497281   
O224     O      0.631870000000     0.673970000000     0.377540000000    -0.491166   
O225     O      0.767590000000     0.924030000000     0.875290000000    -0.491233   
O226     O      0.790510000000     0.971630000000     0.875230000000    -0.473687   
O227     O      0.835150000000     0.882160000000     0.911260000000    -0.478713   
O228     O      0.813220000000     0.881700000000     0.842710000000    -0.478485   
O229     O      0.856980000000     0.971660000000     0.877560000000    -0.473675   
O230     O      0.832920000000     0.925950000000     0.822170000000    -0.497266   
O231     O      0.815180000000     0.926740000000     0.931260000000    -0.497031   
O232     O      0.880400000000     0.924080000000     0.878100000000    -0.491345   
O233     O      0.629790000000     0.547750000000     0.874770000000    -0.491317   
O234     O      0.606840000000     0.500170000000     0.875050000000    -0.47347    
O235     O      0.562230000000     0.589900000000     0.910480000000    -0.478564   
O236     O      0.584190000000     0.589910000000     0.841920000000    -0.478599   
O237     O      0.540370000000     0.500210000000     0.877400000000    -0.473671   
O238     O      0.564640000000     0.545480000000     0.821610000000    -0.497116   
O239     O      0.582380000000     0.545500000000     0.930710000000    -0.497167   
O240     O      0.516980000000     0.547810000000     0.877520000000    -0.491256   
O241     O      0.511240000000     0.554920000000     0.125140000000    -0.491144   
O242     O      0.963650000000     0.578340000000     0.125650000000    -0.473324   
O243     O      0.553610000000     0.622100000000     0.160530000000    -0.478581   
O244     O      0.553160000000     0.600160000000     0.091970000000    -0.478663   
O245     O      0.963690000000     0.644800000000     0.127990000000    -0.473729   
O246     O      0.508580000000     0.620140000000     0.071960000000    -0.497133   
O247     O      0.509360000000     0.602400000000     0.181060000000    -0.497188   
O248     O      0.511280000000     0.667730000000     0.127930000000    -0.491233   
O249     O      0.887560000000     0.805530000000     0.128480000000    -0.491198   
O250     O      0.935140000000     0.828480000000     0.128210000000    -0.473634   
O251     O      0.845410000000     0.873090000000     0.092760000000    -0.478295   
O252     O      0.845410000000     0.851130000000     0.161320000000    -0.47877    
O253     O      0.935100000000     0.894950000000     0.125860000000    -0.473839   
O254     O      0.889830000000     0.870670000000     0.181640000000    -0.497365   
O255     O      0.889820000000     0.852940000000     0.072540000000    -0.497077   
O256     O      0.887500000000     0.918340000000     0.125710000000    -0.491159   


