data_structure

_audit_creation_method RASPA-1.0
_audit_creation_date 2023-5-22
_audit_author_name 'Poobodin Mano'

_cell_length_a    48.7194
_cell_length_b    49.1615
_cell_length_c    28.7615
_cell_angle_alpha 90.0148
_cell_angle_beta  89.9859
_cell_angle_gamma 120.343
_cell_volume      59450.8

_symmetry_cell_setting          triclinic
_symmetry_space_group_name_Hall 'P 1'
_symmetry_space_group_name_H-M  'P 1'
_symmetry_Int_Tables_number     1

_symmetry_equiv_pos_as_xyz 'x,y,z'

loop_
_atom_site_label
_atom_site_type_symbol
_atom_site_fract_x
_atom_site_fract_y
_atom_site_fract_z
_atom_site_charge
C1       C      0.373320000000     0.502200000000     0.154860000000     0.356744   
C2       C      0.450490000000     0.511820000000     0.058680000000     0.348683   
C3       C      0.372720000000     0.524660000000     0.010120000000     0.35299    
C4       C      0.450250000000     0.594640000000     0.108410000000     0.357198   
C5       C      0.614560000000     0.469860000000     0.901400000000     0.350731   
C6       C      0.534110000000     0.466670000000     0.001740000000     0.351373   
C7       C      0.533140000000     0.388590000000     0.947900000000     0.34708    
C8       C      0.616500000000     0.465980000000     0.046720000000     0.349663   
C9       C      0.944540000000     0.788400000000     0.061490000000     0.355243   
C10      C      0.866050000000     0.722900000000     0.159340000000     0.347913   
C11      C      0.942630000000     0.815200000000     0.201720000000     0.352782   
C12      C      0.865880000000     0.804040000000     0.098410000000     0.357322   
C13      C      0.709150000000     0.517450000000     0.337090000000     0.3496     
C14      C      0.789190000000     0.597190000000     0.233650000000     0.348853   
C15      C      0.795510000000     0.525930000000     0.297030000000     0.347668   
C16      C      0.708940000000     0.513260000000     0.195050000000     0.348961   
C17      C      0.280100000000     0.810910000000     0.225950000000     0.35699    
C18      C      0.199800000000     0.800930000000     0.320610000000     0.350103   
C19      C      0.200440000000     0.720010000000     0.271960000000     0.355182   
C20      C      0.279460000000     0.791930000000     0.370890000000     0.353201   
C21      C      0.042460000000     0.848630000000     0.486200000000     0.348157   
C22      C      0.117780000000     0.847370000000     0.380930000000     0.349131   
C23      C      0.037950000000     0.857990000000     0.344930000000     0.34805    
C24      C      0.123900000000     0.928930000000     0.443680000000     0.351232   
C25      C      0.619600000000     0.142020000000     0.396640000000     0.350942   
C26      C      0.540670000000     0.064550000000     0.496940000000     0.3516     
C27      C      0.623600000000     0.148050000000     0.543020000000     0.349863   
C28      C      0.539140000000     0.142120000000     0.447200000000     0.347556   
C29      C      0.382430000000     0.854030000000     0.653790000000     0.348759   
C30      C      0.456830000000     0.935150000000     0.551070000000     0.349807   
C31      C      0.466140000000     0.862230000000     0.609200000000     0.349639   
C32      C      0.376850000000     0.845900000000     0.512270000000     0.347583   
C33      C      0.945000000000     0.133970000000     0.561720000000     0.348435   
C34      C      0.872490000000     0.136890000000     0.668200000000     0.3498     
C35      C      0.864310000000     0.052820000000     0.607390000000     0.351989   
C36      C      0.950560000000     0.123090000000     0.703740000000     0.348347   
C37      C      0.717030000000     0.191470000000     0.833160000000     0.34998    
C38      C      0.796800000000     0.189320000000     0.733870000000     0.348848   
C39      C      0.716980000000     0.193820000000     0.690430000000     0.348979   
C40      C      0.803560000000     0.268890000000     0.791040000000     0.348181   
C41      C      0.272460000000     0.462330000000     0.725560000000     0.348267   
C42      C      0.197210000000     0.384430000000     0.831460000000     0.349788   
C43      C      0.277370000000     0.473850000000     0.866260000000     0.347958   
C44      C      0.189840000000     0.458060000000     0.767110000000     0.350377   
C45      C      0.041500000000     0.188200000000     0.992140000000     0.35495    
C46      C      0.119720000000     0.256510000000     0.897000000000     0.34712    
C47      C      0.120850000000     0.174790000000     0.952100000000     0.358337   
C48      C      0.043930000000     0.164640000000     0.849770000000     0.352472   
C49      C      0.837430000000     0.791880000000     0.550890000000     0.357339   
C50      C      0.848490000000     0.720130000000     0.645350000000     0.352598   
C51      C      0.928150000000     0.799330000000     0.593140000000     0.35084    
C52      C      0.858210000000     0.807890000000     0.694280000000     0.35207    
C53      C      0.804280000000     0.521330000000     0.824150000000     0.348091   
C54      C      0.803090000000     0.593850000000     0.713840000000     0.349333   
C55      C      0.795270000000     0.504520000000     0.683740000000     0.347888   
C56      C      0.722160000000     0.517540000000     0.780020000000     0.350674   
C57      C      0.183220000000     0.126190000000     0.064630000000     0.350192   
C58      C      0.263330000000     0.126300000000     0.164430000000     0.349278   
C59      C      0.179880000000     0.123770000000     0.208030000000     0.349239   
C60      C      0.186720000000     0.047130000000     0.107640000000     0.347109   
C61      C      0.472800000000     0.186750000000     0.336090000000     0.348793   
C62      C      0.392440000000     0.178490000000     0.229680000000     0.349097   
C63      C      0.463210000000     0.261670000000     0.293830000000     0.349421   
C64      C      0.483830000000     0.192950000000     0.195400000000     0.347732   
C65      C      0.861930000000     0.478610000000     0.402730000000     0.356351   
C66      C      0.931800000000     0.468630000000     0.495910000000     0.349448   
C67      C      0.839460000000     0.451780000000     0.544130000000     0.354008   
C68      C      0.851540000000     0.387030000000     0.439840000000     0.356377   
C69      C      0.130310000000     0.507970000000     0.651320000000     0.355395   
C70      C      0.061620000000     0.516870000000     0.554780000000     0.348641   
C71      C      0.142590000000     0.598710000000     0.608340000000     0.357508   
C72      C      0.152700000000     0.530090000000     0.507460000000     0.354158   
C73      C      0.138610000000     0.177180000000     0.498460000000     0.351279   
C74      C      0.136380000000     0.254900000000     0.398090000000     0.350685   
C75      C      0.134160000000     0.171310000000     0.354340000000     0.348955   
C76      C      0.057730000000     0.179770000000     0.452620000000     0.347232   
C77      C      0.187860000000     0.461710000000     0.230030000000     0.348452   
C78      C      0.181870000000     0.382440000000     0.336120000000     0.349431   
C79      C      0.263980000000     0.454220000000     0.272020000000     0.34973    
C80      C      0.193500000000     0.472910000000     0.369550000000     0.346504   
C81      C      0.468260000000     0.852790000000     0.151730000000     0.348008   
C82      C      0.473000000000     0.932910000000     0.049920000000     0.349796   
C83      C      0.463460000000     0.844420000000     0.010320000000     0.348127   
C84      C      0.390990000000     0.858780000000     0.111120000000     0.34961    
C85      C      0.514030000000     0.133180000000     0.904970000000     0.356311   
C86      C      0.522130000000     0.062730000000     0.996490000000     0.347431   
C87      C      0.605800000000     0.144740000000     0.947130000000     0.35718    
C88      C      0.536850000000     0.152520000000     0.050010000000     0.35311    
C89      C      0.805490000000     0.853200000000     0.982520000000     0.347651   
C90      C      0.727060000000     0.851760000000     0.878420000000     0.348873   
C91      C      0.803640000000     0.931690000000     0.939450000000     0.348364   
C92      C      0.812980000000     0.856210000000     0.839890000000     0.349331   
C93      C      0.529020000000     0.814760000000     0.722320000000     0.357168   
C94      C      0.597680000000     0.805050000000     0.818020000000     0.348903   
C95      C      0.507290000000     0.793050000000     0.867050000000     0.353556   
C96      C      0.514480000000     0.723060000000     0.767280000000     0.356306   
C97      C      0.141680000000     0.608290000000     0.160690000000     0.347278   
C98      C      0.068380000000     0.537370000000     0.055020000000     0.34607    
C99      C      0.161850000000     0.612120000000     0.017180000000     0.350533   
C100     C      0.145570000000     0.528730000000     0.115920000000     0.357435   
C101     C      0.868940000000     0.382950000000     0.896510000000     0.357082   
C102     C      0.938830000000     0.462250000000     0.990280000000     0.347946   
C103     C      0.856690000000     0.463050000000     0.937160000000     0.356145   
C104     C      0.846740000000     0.385570000000     0.037890000000     0.35268    
C105     C      0.185850000000     0.034970000000     0.565430000000     0.349865   
C106     C      0.262890000000     0.114220000000     0.668990000000     0.350176   
C107     C      0.185770000000     0.114490000000     0.612500000000     0.347005   
C108     C      0.179600000000     0.030220000000     0.709630000000     0.348399   
C109     C      0.469360000000     0.277860000000     0.835500000000     0.348326   
C110     C      0.390820000000     0.200770000000     0.731050000000     0.349871   
C111     C      0.478710000000     0.282500000000     0.694550000000     0.347429   
C112     C      0.465390000000     0.195920000000     0.793670000000     0.348901   
C113     C      0.191910000000     0.707620000000     0.724820000000     0.347376   
C114     C      0.188020000000     0.777380000000     0.832300000000     0.34789    
C115     C      0.205240000000     0.702290000000     0.868450000000     0.349019   
C116     C      0.274070000000     0.787240000000     0.771880000000     0.355298   
C117     C      0.140000000000     0.935990000000     0.995900000000     0.350578   
C118     C      0.137890000000     0.854900000000     0.897340000000     0.349703   
C119     C      0.059350000000     0.850520000000     0.955190000000     0.347655   
C120     C      0.133980000000     0.935370000000     0.853760000000     0.349022   
C121     C      0.505230000000     0.372620000000     0.404610000000     0.357826   
C122     C      0.512660000000     0.451630000000     0.497780000000     0.350424   
C123     C      0.527330000000     0.376690000000     0.549730000000     0.353022   
C124     C      0.596470000000     0.453730000000     0.448430000000     0.354279   
C125     C      0.464160000000     0.611600000000     0.655400000000     0.350861   
C126     C      0.463520000000     0.531430000000     0.556390000000     0.349515   
C127     C      0.383960000000     0.527670000000     0.612900000000     0.347395   
C128     C      0.460040000000     0.611120000000     0.511390000000     0.349385   
C129     C      0.847920000000     0.039770000000     0.057350000000     0.350269   
C130     C      0.849320000000     0.121170000000     0.155070000000     0.349597   
C131     C      0.850870000000     0.039850000000     0.200630000000     0.348724   
C132     C      0.927060000000     0.124450000000     0.098990000000     0.348148   
C133     C      0.804960000000     0.279910000000     0.320430000000     0.347304   
C134     C      0.807210000000     0.206640000000     0.213310000000     0.349525   
C135     C      0.725400000000     0.201770000000     0.272700000000     0.350581   
C136     C      0.800800000000     0.288370000000     0.177840000000     0.348258   
C137     C      0.798880000000     0.944590000000     0.489720000000     0.349799   
C138     C      0.717870000000     0.865970000000     0.388010000000     0.349692   
C139     C      0.803030000000     0.946440000000     0.347080000000     0.348982   
C140     C      0.791100000000     0.859890000000     0.446770000000     0.347722   
C141     C      0.510710000000     0.705770000000     0.220610000000     0.349769   
C142     C      0.589310000000     0.785110000000     0.322910000000     0.349423   
C143     C      0.513040000000     0.787570000000     0.264950000000     0.347329   
C144     C      0.505800000000     0.703690000000     0.364350000000     0.349628   
C145     C      0.679240000000     0.829280000000     0.328920000000    -0.00554881 
C146     C      0.684960000000     0.845360000000     0.371420000000    -0.0737147  
C147     C      0.658990000000     0.841680000000     0.397720000000    -0.00538381 
C148     C      0.627880000000     0.822210000000     0.381870000000    -0.00579551 
C149     C      0.622170000000     0.806090000000     0.339400000000    -0.073208   
C150     C      0.648150000000     0.809850000000     0.313060000000    -0.00543959 
C151     C      0.858160000000     0.004010000000     0.255500000000    -0.00547567 
C152     C      0.839630000000     0.016440000000     0.238730000000    -0.075399   
C153     C      0.809300000000     0.005590000000     0.257760000000    -0.00461743 
C154     C      0.797700000000     0.982950000000     0.292860000000    -0.00566892 
C155     C      0.815930000000     0.970190000000     0.309430000000    -0.0747617  
C156     C      0.846270000000     0.980830000000     0.290370000000    -0.00629079 
C157     C      0.817660000000     0.147760000000     0.141840000000    -0.00569617 
C158     C      0.838880000000     0.143380000000     0.169490000000    -0.0733843  
C159     C      0.850040000000     0.160380000000     0.211200000000    -0.0058647  
C160     C      0.839960000000     0.181150000000     0.225200000000    -0.00513715 
C161     C      0.818580000000     0.185400000000     0.197730000000    -0.0751585  
C162     C      0.807620000000     0.168600000000     0.155810000000    -0.00546309 
C163     C      0.501170000000     0.645540000000     0.453990000000    -0.00456786 
C164     C      0.470810000000     0.634270000000     0.473120000000    -0.0756518  
C165     C      0.451750000000     0.646080000000     0.456370000000    -0.0054158  
C166     C      0.463170000000     0.669140000000     0.421410000000    -0.00544589 
C167     C      0.493520000000     0.680180000000     0.402170000000    -0.0754016  
C168     C      0.512280000000     0.668000000000     0.418660000000    -0.00480554 
C169     C      0.475260000000     0.472280000000     0.487300000000    -0.00605671 
C170     C      0.499930000000     0.472000000000     0.512210000000    -0.0725733  
C171     C      0.512330000000     0.491270000000     0.551730000000    -0.00461471 
C172     C      0.500320000000     0.510360000000     0.566130000000    -0.00550805 
C173     C      0.475750000000     0.510770000000     0.541220000000    -0.0731114  
C174     C      0.463340000000     0.491570000000     0.501600000000    -0.00570312 
C175     C      0.183350000000     0.811250000000     0.892990000000    -0.00574012 
C176     C      0.174270000000     0.796280000000     0.849460000000    -0.0751932  
C177     C      0.152510000000     0.800110000000     0.822260000000    -0.00578633 
C178     C      0.140360000000     0.818850000000     0.838080000000    -0.0057825  
C179     C      0.149810000000     0.834170000000     0.881340000000    -0.0736677  
C180     C      0.171280000000     0.830030000000     0.908740000000    -0.00566246 
C181     C      0.490260000000     0.334120000000     0.661900000000    -0.00629082 
C182     C      0.493610000000     0.307420000000     0.658760000000    -0.0742815  
C183     C      0.510360000000     0.304730000000     0.620940000000    -0.00672356 
C184     C      0.522470000000     0.327830000000     0.586000000000    -0.00457807 
C185     C      0.518150000000     0.354000000000     0.588590000000    -0.0772932  
C186     C      0.502430000000     0.357130000000     0.627330000000    -0.00468316 
C187     C      0.137700000000     0.996010000000     0.768050000000    -0.00685349 
C188     C      0.167230000000     0.006000000000     0.746590000000    -0.0745407  
C189     C      0.185110000000     0.992150000000     0.760070000000    -0.00592684 
C190     C      0.174010000000     0.969130000000     0.794590000000    -0.00459988 
C191     C      0.144520000000     0.958990000000     0.816080000000    -0.0757235  
C192     C      0.126300000000     0.972460000000     0.802330000000    -0.0054008  
C193     C      0.300890000000     0.152770000000     0.727040000000    -0.00575662 
C194     C      0.295570000000     0.136730000000     0.684590000000    -0.0736505  
C195     C      0.321790000000     0.142290000000     0.657200000000    -0.00544775 
C196     C      0.352740000000     0.163320000000     0.672140000000    -0.00546895 
C197     C      0.358070000000     0.179210000000     0.714740000000    -0.0753093  
C198     C      0.331850000000     0.173830000000     0.741980000000    -0.00514817 
C199     C      0.803680000000     0.333660000000     0.069240000000    -0.00471851 
C200     C      0.832690000000     0.361960000000     0.075530000000    -0.0769627  
C201     C      0.849910000000     0.366370000000     0.116720000000    -0.0051998  
C202     C      0.839070000000     0.342600000000     0.150090000000    -0.00584944 
C203     C      0.810670000000     0.313870000000     0.143230000000    -0.0753596  
C204     C      0.792680000000     0.309820000000     0.102940000000    -0.00629688 
C205     C      0.170170000000     0.624740000000     0.932480000000    -0.00507894 
C206     C      0.176710000000     0.634870000000     0.978860000000    -0.0774482  
C207     C      0.195190000000     0.667290000000     0.988400000000    -0.00436924 
C208     C      0.205990000000     0.689280000000     0.952220000000    -0.00545862 
C209     C      0.197840000000     0.679210000000     0.906040000000    -0.0759183  
C210     C      0.180350000000     0.646750000000     0.896380000000    -0.00505508 
C211     C      0.010230000000     0.518200000000     0.062730000000    -0.00590954 
C212     C      0.035330000000     0.518790000000     0.037880000000    -0.0747293  
C213     C      0.028540000000     0.501160000000     0.996650000000    -0.00558651 
C214     C      0.997220000000     0.482970000000     0.980890000000    -0.00687521 
C215     C      0.972090000000     0.482210000000     0.005920000000    -0.0722975  
C216     C      0.978930000000     0.500160000000     0.046840000000    -0.00559318 
C217     C      0.468420000000     0.671630000000     0.741560000000    -0.00429858 
C218     C      0.501420000000     0.691570000000     0.746060000000    -0.0768077  
C219     C      0.521900000000     0.682840000000     0.725090000000    -0.00318893 
C220     C      0.509670000000     0.655590000000     0.697920000000    -0.00564295 
C221     C      0.476760000000     0.636910000000     0.690620000000    -0.0762127  
C222     C      0.456200000000     0.644660000000     0.713730000000    -0.00505557 
C223     C      0.857890000000     0.010420000000     0.995220000000    -0.00392226 
C224     C      0.836220000000     0.015090000000     0.021300000000    -0.0760334  
C225     C      0.803490000000     0.994130000000     0.015740000000    -0.00489234 
C226     C      0.792720000000     0.967680000000     0.987090000000    -0.00571509 
C227     C      0.814500000000     0.962150000000     0.962850000000    -0.0730256  
C228     C      0.847100000000     0.984340000000     0.965870000000    -0.00568259 
C229     C      0.687810000000     0.852150000000     0.822420000000    -0.00541444 
C230     C      0.694080000000     0.839720000000     0.862370000000    -0.0742579  
C231     C      0.668480000000     0.815710000000     0.887190000000    -0.0052453  
C232     C      0.637240000000     0.804370000000     0.872470000000    -0.00511442 
C233     C      0.630900000000     0.816910000000     0.832730000000    -0.0720739  
C234     C      0.656480000000     0.840900000000     0.807790000000    -0.00644534 
C235     C      0.516670000000     0.162840000000     0.832930000000    -0.00356279 
C236     C      0.499000000000     0.144010000000     0.870770000000    -0.0776555  
C237     C      0.468420000000     0.139130000000     0.878930000000    -0.00370549 
C238     C      0.456710000000     0.154640000000     0.851910000000    -0.0065133  
C239     C      0.475330000000     0.175270000000     0.816200000000    -0.0726087  
C240     C      0.504920000000     0.178330000000     0.805840000000    -0.00641225 
C241     C      0.523740000000     0.834930000000     0.218870000000    -0.00498704 
C242     C      0.502140000000     0.807620000000     0.243230000000    -0.0730378  
C243     C      0.469590000000     0.797650000000     0.241820000000    -0.00506964 
C244     C      0.458620000000     0.813350000000     0.213670000000    -0.00519347 
C245     C      0.480090000000     0.839650000000     0.187310000000    -0.0731104  
C246     C      0.512830000000     0.851020000000     0.191510000000    -0.00495955 
C247     C      0.454040000000     0.814550000000     0.935160000000    -0.00669775 
C248     C      0.472860000000     0.828980000000     0.974630000000    -0.0750976  
C249     C      0.501730000000     0.829350000000     0.979690000000    -0.00621983 
C250     C      0.512090000000     0.816470000000     0.945540000000    -0.00490086 
C251     C      0.493970000000     0.803050000000     0.905240000000    -0.0778793  
C252     C      0.464580000000     0.801780000000     0.900600000000    -0.00463606 
C253     C      0.510500000000     0.990560000000     0.060820000000    -0.00514593 
C254     C      0.485880000000     0.965990000000     0.035330000000    -0.0754526  
C255     C      0.473390000000     0.973410000000     0.996470000000    -0.00550577 
C256     C      0.485140000000     0.004860000000     0.983640000000    -0.00680524 
C257     C      0.509690000000     0.029400000000     0.009320000000    -0.0713163  
C258     C      0.522330000000     0.021910000000     0.047890000000    -0.00534219 
C259     C      0.188400000000     0.518300000000     0.141100000000    -0.0027739  
C260     C      0.155900000000     0.508350000000     0.138140000000    -0.0777591  
C261     C      0.133740000000     0.480500000000     0.160900000000    -0.00341099 
C262     C      0.144040000000     0.463940000000     0.188430000000    -0.00628158 
C263     C      0.176680000000     0.475250000000     0.194130000000    -0.0724562  
C264     C      0.198710000000     0.502020000000     0.169140000000    -0.00636107 
C265     C      0.130120000000     0.138730000000     0.561380000000    -0.0036164  
C266     C      0.151120000000     0.164840000000     0.534280000000    -0.077598   
C267     C      0.183970000000     0.176750000000     0.538130000000    -0.00438532 
C268     C      0.195440000000     0.161310000000     0.565830000000    -0.00592201 
C269     C      0.174300000000     0.134080000000     0.590800000000    -0.0718424  
C270     C      0.141650000000     0.123640000000     0.589770000000    -0.00608878 
C271     C      0.168790000000     0.313230000000     0.410180000000    -0.00555305 
C272     C      0.147330000000     0.287520000000     0.382860000000    -0.073379   
C273     C      0.136700000000     0.293260000000     0.340590000000    -0.00578446 
C274     C      0.147600000000     0.324120000000     0.325670000000    -0.00523167 
C275     C      0.169350000000     0.349830000000     0.352740000000    -0.0756149  
C276     C      0.179700000000     0.344090000000     0.395270000000    -0.00554913 
C277     C      0.133960000000     0.635930000000     0.656470000000    -0.00226635 
C278     C      0.154660000000     0.629820000000     0.630390000000    -0.0773203  
C279     C      0.187340000000     0.652000000000     0.630570000000    -0.00339651 
C280     C      0.199360000000     0.678540000000     0.659300000000    -0.00683598 
C281     C      0.178850000000     0.683450000000     0.687920000000    -0.0711362  
C282     C      0.145930000000     0.662600000000     0.684820000000    -0.00628188 
C283     C      0.194210000000     0.518850000000     0.476210000000    -0.00417411 
C284     C      0.165750000000     0.519220000000     0.470090000000    -0.0785777  
C285     C      0.147870000000     0.506070000000     0.429510000000    -0.00463393 
C286     C      0.157390000000     0.491610000000     0.396730000000    -0.00640816 
C287     C      0.185190000000     0.490180000000     0.403480000000    -0.0740007  
C288     C      0.203960000000     0.504570000000     0.442990000000    -0.00695404 
C289     C      0.795770000000     0.308590000000     0.384570000000    -0.00620902 
C290     C      0.817010000000     0.303520000000     0.358020000000    -0.0724294  
C291     C      0.849850000000     0.323750000000     0.363810000000    -0.00615627 
C292     C      0.861180000000     0.350070000000     0.392770000000    -0.00243325 
C293     C      0.839870000000     0.356290000000     0.416950000000    -0.0771425  
C294     C      0.807130000000     0.334640000000     0.414110000000    -0.00344262 
C295     C      0.972060000000     0.466120000000     0.546780000000    -0.00488183 
C296     C      0.965040000000     0.481020000000     0.510810000000    -0.0724626  
C297     C      0.989990000000     0.507840000000     0.489560000000    -0.00642502 
C298     C      0.021380000000     0.519520000000     0.504000000000    -0.0046492  
C299     C      0.028390000000     0.504610000000     0.539950000000    -0.0723535  
C300     C      0.003430000000     0.477810000000     0.561210000000    -0.00613919 
C301     C      0.499400000000     0.319670000000     0.305330000000    -0.00673109 
C302     C      0.471080000000     0.291800000000     0.316330000000    -0.0731616  
C303     C      0.451890000000     0.292240000000     0.352520000000    -0.00685175 
C304     C      0.461960000000     0.319360000000     0.379370000000    -0.00353701 
C305     C      0.491410000000     0.346540000000     0.370530000000    -0.0793372  
C306     C      0.509470000000     0.346810000000     0.332200000000    -0.00329497 
C307     C      0.513720000000     0.203450000000     0.119880000000    -0.00676058 
C308     C      0.500300000000     0.184740000000     0.159660000000    -0.0743348  
C309     C      0.501550000000     0.156950000000     0.164580000000    -0.00613674 
C310     C      0.514820000000     0.147390000000     0.129820000000    -0.00502289 
C311     C      0.527000000000     0.165280000000     0.089090000000    -0.0778902  
C312     C      0.526870000000     0.193720000000     0.084750000000    -0.00440501 
C313     C      0.196770000000     0.010670000000     0.059700000000    -0.00553606 
C314     C      0.175650000000     0.016110000000     0.085880000000    -0.0722413  
C315     C      0.143230000000     0.993100000000     0.086490000000    -0.00617257 
C316     C      0.131790000000     0.966190000000     0.058720000000    -0.00367209 
C317     C      0.152690000000     0.961540000000     0.030680000000    -0.0765116  
C318     C      0.185420000000     0.983410000000     0.032690000000    -0.00496457 
C319     C      0.186020000000     0.166440000000     0.261130000000    -0.00495033 
C320     C      0.167700000000     0.135100000000     0.245930000000    -0.0751563  
C321     C      0.137820000000     0.115520000000     0.266380000000    -0.00564974 
C322     C      0.126410000000     0.127290000000     0.301180000000    -0.00562386 
C323     C      0.144990000000     0.158610000000     0.316520000000    -0.0755561  
C324     C      0.174920000000     0.177970000000     0.296230000000    -0.00487526 
C325     C      0.302620000000     0.129180000000     0.223190000000    -0.00604237 
C326     C      0.296390000000     0.138740000000     0.180360000000    -0.0732535  
C327     C      0.322040000000     0.160900000000     0.153400000000    -0.00573105 
C328     C      0.353270000000     0.173560000000     0.169230000000    -0.00552857 
C329     C      0.359470000000     0.164320000000     0.212330000000    -0.0753792  
C330     C      0.333860000000     0.141850000000     0.239020000000    -0.00521509 
C331     C      0.851140000000     0.523430000000     0.863010000000    -0.00613667 
C332     C      0.818080000000     0.510470000000     0.860260000000    -0.0723005  
C333     C      0.798160000000     0.484320000000     0.888120000000    -0.00640067 
C334     C      0.810960000000     0.470140000000     0.915940000000    -0.00359491 
C335     C      0.843830000000     0.481590000000     0.915780000000    -0.0775475  
C336     C      0.863900000000     0.508960000000     0.890270000000    -0.00285331 
C337     C      0.786130000000     0.474160000000     0.609400000000    -0.00655671 
C338     C      0.804260000000     0.487910000000     0.649640000000    -0.0749742  
C339     C      0.832180000000     0.486750000000     0.656730000000    -0.00601956 
C340     C      0.842570000000     0.473390000000     0.623420000000    -0.00466268 
C341     C      0.825400000000     0.461030000000     0.582080000000    -0.0779334  
C342     C      0.796700000000     0.460890000000     0.575750000000    -0.00430241 
C343     C      0.781760000000     0.817330000000     0.503080000000    -0.00720151 
C344     C      0.800340000000     0.838150000000     0.467510000000    -0.0721003  
C345     C      0.829240000000     0.840160000000     0.455470000000    -0.00730293 
C346     C      0.840440000000     0.823430000000     0.480790000000    -0.00298215 
C347     C      0.822800000000     0.804220000000     0.518370000000    -0.0804255  
C348     C      0.792830000000     0.800430000000     0.528150000000    -0.00371937 
C349     C      0.830740000000     0.802140000000     0.769550000000    -0.00450747 
C350     C      0.849430000000     0.821720000000     0.733100000000    -0.0766546  
C351     C      0.857410000000     0.853500000000     0.732840000000    -0.00521864 
C352     C      0.846010000000     0.865160000000     0.767840000000    -0.00632782 
C353     C      0.826570000000     0.845180000000     0.803570000000    -0.0753256  
C354     C      0.819500000000     0.813720000000     0.804330000000    -0.00576925 
C355     C      0.849730000000     0.682690000000     0.702830000000    -0.00482305 
C356     C      0.837340000000     0.687640000000     0.661630000000    -0.0728834  
C357     C      0.813910000000     0.661410000000     0.637160000000    -0.00598298 
C358     C      0.802940000000     0.630840000000     0.653820000000    -0.00549992 
C359     C      0.815090000000     0.625990000000     0.695360000000    -0.075515   
C360     C      0.838670000000     0.652230000000     0.719560000000    -0.00544005 
C361     C      0.013300000000     0.159610000000     0.064650000000    -0.0037041  
C362     C      0.014980000000     0.177560000000     0.025540000000    -0.0759595  
C363     C      0.988980000000     0.181380000000     0.015080000000    -0.00366137 
C364     C      0.960950000000     0.165520000000     0.040930000000    -0.00628988 
C365     C      0.958430000000     0.145660000000     0.077860000000    -0.0719039  
C366     C      0.985260000000     0.143830000000     0.090690000000    -0.00669281 
C367     C      0.168920000000     0.182900000000     0.995140000000    -0.00299824 
C368     C      0.139630000000     0.162310000000     0.973900000000    -0.0778683  
C369     C      0.126860000000     0.129660000000     0.978170000000    -0.00369623 
C370     C      0.141950000000     0.117840000000     0.006000000000    -0.00500702 
C371     C      0.170340000000     0.138470000000     0.029330000000    -0.0755662  
C372     C      0.184300000000     0.171060000000     0.022320000000    -0.00548786 
C373     C      0.302240000000     0.500270000000     0.661630000000    -0.00516588 
C374     C      0.297730000000     0.475070000000     0.690010000000    -0.0728327  
C375     C      0.319840000000     0.464780000000     0.688070000000    -0.00481619 
C376     C      0.347270000000     0.480980000000     0.660940000000    -0.00509106 
C377     C      0.352650000000     0.507270000000     0.634540000000    -0.072798   
C378     C      0.329330000000     0.516030000000     0.633700000000    -0.00502301 
C379     C      0.173220000000     0.497880000000     0.753090000000    -0.00603055 
C380     C      0.169560000000     0.468210000000     0.743550000000    -0.0730711  
C381     C      0.149070000000     0.449900000000     0.707460000000    -0.00636621 
C382     C      0.134390000000     0.462000000000     0.679250000000    -0.0040587  
C383     C      0.140030000000     0.492640000000     0.686570000000    -0.0772401  
C384     C      0.158610000000     0.510000000000     0.724810000000    -0.00379836 
C385     C      0.159240000000     0.345470000000     0.889360000000    -0.00507663 
C386     C      0.177610000000     0.351840000000     0.848790000000    -0.0762168  
C387     C      0.177020000000     0.326720000000     0.824680000000    -0.00486434 
C388     C      0.158400000000     0.295840000000     0.840710000000    -0.00579757 
C389     C      0.139830000000     0.289390000000     0.881050000000    -0.0724377  
C390     C      0.140430000000     0.314490000000     0.905280000000    -0.00699854 
C391     C      0.684430000000     0.200890000000     0.890940000000    -0.00526711 
C392     C      0.691740000000     0.179870000000     0.868680000000    -0.0752153  
C393     C      0.672720000000     0.147440000000     0.877330000000    -0.00600046 
C394     C      0.645540000000     0.136090000000     0.905050000000    -0.00271183 
C395     C      0.637280000000     0.157000000000     0.925270000000    -0.077262   
C396     C      0.657570000000     0.189560000000     0.919370000000    -0.00380088 
C397     C      0.839910000000     0.354660000000     0.824280000000    -0.00354558 
C398     C      0.857850000000     0.356340000000     0.863600000000    -0.0779808  
C399     C      0.861270000000     0.330390000000     0.874670000000    -0.00352693 
C400     C      0.845040000000     0.302460000000     0.849160000000    -0.00671787 
C401     C      0.825220000000     0.300010000000     0.811940000000    -0.0726082  
C402     C      0.823790000000     0.326740000000     0.798570000000    -0.00678322 
C403     C      0.974230000000     0.126530000000     0.496190000000    -0.00531332 
C404     C      0.970400000000     0.146880000000     0.526340000000    -0.0729234  
C405     C      0.993570000000     0.179040000000     0.526800000000    -0.00487398 
C406     C      0.021330000000     0.190130000000     0.500550000000    -0.00498648 
C407     C      0.026120000000     0.169360000000     0.472820000000    -0.0724457  
C408     C      0.001780000000     0.137740000000     0.469320000000    -0.00507773 
C409     C      0.855180000000     0.000810000000     0.579810000000    -0.00399241 
C410     C      0.844270000000     0.022220000000     0.584200000000    -0.0743088  
C411     C      0.816050000000     0.015770000000     0.561540000000    -0.00477776 
C412     C      0.799980000000     0.989250000000     0.532960000000    -0.00547051 
C413     C      0.812240000000     0.969140000000     0.525970000000    -0.0755072  
C414     C      0.839470000000     0.974660000000     0.550610000000    -0.00488484 
C415     C      0.006130000000     0.156030000000     0.732240000000    -0.00552171 
C416     C      0.975040000000     0.130990000000     0.739800000000    -0.075635   
C417     C      0.967540000000     0.115000000000     0.782550000000    -0.00600212 
C418     C      0.990400000000     0.124990000000     0.817940000000    -0.00484273 
C419     C      0.021110000000     0.150960000000     0.810900000000    -0.0771585  
C420     C      0.028930000000     0.165840000000     0.767330000000    -0.00544563 
C421     C      0.850230000000     0.172610000000     0.658190000000    -0.00513818 
C422     C      0.853600000000     0.150730000000     0.685350000000    -0.0758922  
C423     C      0.838590000000     0.142030000000     0.728960000000    -0.00534313 
C424     C      0.820320000000     0.154750000000     0.744910000000    -0.00601363 
C425     C      0.816790000000     0.176490000000     0.717620000000    -0.0731837  
C426     C      0.832050000000     0.185410000000     0.674200000000    -0.00621069 
C427     C      0.353180000000     0.813530000000     0.714850000000    -0.00590813 
C428     C      0.358130000000     0.840450000000     0.690630000000    -0.0731818  
C429     C      0.337490000000     0.852100000000     0.698340000000    -0.00568041 
C430     C      0.310920000000     0.835690000000     0.727070000000    -0.00406482 
C431     C      0.304910000000     0.807680000000     0.749030000000    -0.076177   
C432     C      0.326920000000     0.797410000000     0.744110000000    -0.00326043 
C433     C      0.484790000000     0.823760000000     0.621360000000    -0.0064246  
C434     C      0.487450000000     0.852920000000     0.631600000000    -0.072719   
C435     C      0.507920000000     0.871470000000     0.667550000000    -0.00657663 
C436     C      0.523450000000     0.859990000000     0.695120000000    -0.00351755 
C437     C      0.518740000000     0.829740000000     0.687280000000    -0.0783924  
C438     C      0.500300000000     0.812250000000     0.649000000000    -0.00339717 
C439     C      0.647840000000     0.179410000000     0.331590000000    -0.00422348 
C440     C      0.643010000000     0.153520000000     0.358510000000    -0.0773982  
C441     C      0.662870000000     0.140850000000     0.351770000000    -0.00458803 
C442     C      0.688710000000     0.155440000000     0.321340000000    -0.00548417 
C443     C      0.694740000000     0.182590000000     0.296670000000    -0.0732965  
C444     C      0.673350000000     0.193680000000     0.300610000000    -0.00503233 
C445     C      0.490230000000     0.131910000000     0.404680000000    -0.00513728 
C446     C      0.518860000000     0.153310000000     0.426800000000    -0.0726795  
C447     C      0.529830000000     0.185720000000     0.423900000000    -0.00501127 
C448     C      0.513800000000     0.196640000000     0.396250000000    -0.00525986 
C449     C      0.486250000000     0.175290000000     0.371790000000    -0.0732065  
C450     C      0.473900000000     0.142800000000     0.377740000000    -0.00483322 
C451     C      0.659970000000     0.141980000000     0.597210000000    -0.00473789 
C452     C      0.647300000000     0.160290000000     0.580980000000    -0.0762722  
C453     C      0.657990000000     0.190180000000     0.600650000000    -0.00546961 
C454     C      0.681180000000     0.201590000000     0.635740000000    -0.00581029 
C455     C      0.693510000000     0.182990000000     0.652210000000    -0.0749185  
C456     C      0.682580000000     0.153080000000     0.632660000000    -0.00502796 
C457     C      0.481670000000     0.993030000000     0.565750000000    -0.00557022 
C458     C      0.477430000000     0.968260000000     0.536580000000    -0.0750683  
C459     C      0.493700000000     0.975410000000     0.493960000000    -0.00604442 
C460     C      0.514070000000     0.006730000000     0.480970000000    -0.00468945 
C461     C      0.518600000000     0.031500000000     0.510360000000    -0.0739437  
C462     C      0.502090000000     0.024370000000     0.552770000000    -0.00519632 
C463     C      0.995100000000     0.802840000000     0.522410000000    -0.00546696 
C464     C      0.016600000000     0.835430000000     0.520920000000    -0.07239    
C465     C      0.010720000000     0.855570000000     0.548460000000    -0.00556028 
C466     C      0.982830000000     0.843530000000     0.574760000000    -0.0048771  
C467     C      0.960150000000     0.811240000000     0.573270000000    -0.0741103  
C468     C      0.966980000000     0.790880000000     0.548060000000    -0.00396793 
C469     C      0.133280000000     0.981170000000     0.470350000000    -0.00486938 
C470     C      0.143610000000     0.959240000000     0.467700000000    -0.0737327  
C471     C      0.170640000000     0.964770000000     0.492980000000    -0.00521528 
C472     C      0.185920000000     0.990810000000     0.522570000000    -0.0050323  
C473     C      0.174000000000     0.011330000000     0.527930000000    -0.0760215  
C474     C      0.148170000000     0.006840000000     0.500560000000    -0.00386162 
C475     C      0.331600000000     0.856160000000     0.198060000000    -0.00369495 
C476     C      0.305700000000     0.825670000000     0.190910000000    -0.0787858  
C477     C      0.306470000000     0.807880000000     0.153140000000    -0.00333923 
C478     C      0.333550000000     0.819480000000     0.125120000000    -0.00658025 
C479     C      0.360360000000     0.849020000000     0.134490000000    -0.0726048  
C480     C      0.358710000000     0.867710000000     0.170150000000    -0.00668829 
C481     C      0.192360000000     0.666700000000     0.253360000000    -0.00389949 
C482     C      0.181540000000     0.688280000000     0.251340000000    -0.0762875  
C483     C      0.154580000000     0.680880000000     0.224370000000    -0.00277491 
C484     C      0.140100000000     0.653530000000     0.197340000000    -0.00606666 
C485     C      0.152500000000     0.633230000000     0.196420000000    -0.0704059  
C486     C      0.178040000000     0.639460000000     0.225930000000    -0.00668191 
C487     C      0.299720000000     0.818060000000     0.447530000000    -0.0047474  
C488     C      0.303270000000     0.802760000000     0.408740000000    -0.0778052  
C489     C      0.330770000000     0.800360000000     0.405130000000    -0.00464339 
C490     C      0.354650000000     0.813830000000     0.439130000000    -0.00685017 
C491     C      0.351430000000     0.830040000000     0.477080000000    -0.0745228  
C492     C      0.323510000000     0.831570000000     0.481190000000    -0.00641642 
C493     C      0.159480000000     0.800130000000     0.375130000000    -0.00513102 
C494     C      0.178250000000     0.812360000000     0.334980000000    -0.0724805  
C495     C      0.176540000000     0.835830000000     0.309470000000    -0.00637563 
C496     C      0.156590000000     0.846980000000     0.324060000000    -0.0053723  
C497     C      0.138140000000     0.834990000000     0.364570000000    -0.0754263  
C498     C      0.139710000000     0.811390000000     0.389840000000    -0.00533495 
C499     C      0.675890000000     0.476020000000     0.395220000000    -0.00475045 
C500     C      0.683530000000     0.504190000000     0.372170000000    -0.0751433  
C501     C      0.664390000000     0.517620000000     0.379310000000    -0.00560914 
C502     C      0.636800000000     0.501950000000     0.406280000000    -0.00357834 
C503     C      0.628250000000     0.472910000000     0.427300000000    -0.0756585  
C504     C      0.648650000000     0.460660000000     0.422940000000    -0.00466355 
C505     C      0.816870000000     0.489310000000     0.304530000000    -0.00682429 
C506     C      0.817320000000     0.516910000000     0.318460000000    -0.072383   
C507     C      0.836460000000     0.534160000000     0.356320000000    -0.00687328 
C508     C      0.853010000000     0.522840000000     0.381830000000    -0.00361149 
C509     C      0.850590000000     0.493990000000     0.370080000000    -0.0779362  
C510     C      0.833310000000     0.477900000000     0.330190000000    -0.003522   
C511     C      0.972840000000     0.815280000000     0.988100000000    -0.00427929 
C512     C      0.971180000000     0.798370000000     0.028450000000    -0.0762032  
C513     C      0.997320000000     0.795120000000     0.040390000000    -0.00391959 
C514     C      0.025460000000     0.810600000000     0.014670000000    -0.00611862 
C515     C      0.027940000000     0.829500000000     0.976420000000    -0.0722424  
C516     C      0.000980000000     0.830680000000     0.962230000000    -0.00641845 
C517     C      0.818510000000     0.796190000000     0.053560000000    -0.00258293 
C518     C      0.847530000000     0.816660000000     0.075560000000    -0.077826   
C519     C      0.860480000000     0.849340000000     0.071220000000    -0.00323397 
C520     C      0.845860000000     0.861300000000     0.042660000000    -0.00615639 
C521     C      0.817750000000     0.840800000000     0.018620000000    -0.0727498  
C522     C      0.803580000000     0.808180000000     0.025630000000    -0.00615242 
C523     C      0.982290000000     0.824220000000     0.317650000000    -0.00550417 
C524     C      0.013030000000     0.849720000000     0.309520000000    -0.0753155  
C525     C      0.019640000000     0.865930000000     0.267030000000    -0.00589939 
C526     C      0.996280000000     0.855660000000     0.232350000000    -0.00484616 
C527     C      0.965920000000     0.829270000000     0.239950000000    -0.0770658  
C528     C      0.958960000000     0.814200000000     0.283360000000    -0.00535837 
C529     C      0.846190000000     0.664890000000     0.156510000000    -0.00640557 
C530     C      0.846250000000     0.690620000000     0.177820000000    -0.0729835  
C531     C      0.827600000000     0.685410000000     0.217770000000    -0.0050407  
C532     C      0.809290000000     0.655110000000     0.236120000000    -0.00570191 
C533     C      0.809140000000     0.629340000000     0.214790000000    -0.0733057  
C534     C      0.827740000000     0.634500000000     0.174760000000    -0.00570174 
C535     C      0.659160000000     0.515040000000     0.859320000000    -0.00458948 
C536     C      0.638800000000     0.482410000000     0.864390000000    -0.0771384  
C537     C      0.643830000000     0.461710000000     0.836890000000    -0.00422593 
C538     C      0.669820000000     0.473360000000     0.806750000000    -0.00488158 
C539     C      0.691540000000     0.505870000000     0.804230000000    -0.073614   
C540     C      0.685500000000     0.526680000000     0.829760000000    -0.00559466 
C541     C      0.524060000000     0.335630000000     0.925520000000    -0.00527799 
C542     C      0.513300000000     0.357270000000     0.926700000000    -0.0721532  
C543     C      0.485470000000     0.350340000000     0.902460000000    -0.00543395 
C544     C      0.469720000000     0.323130000000     0.875280000000    -0.00470016 
C545     C      0.481940000000     0.302790000000     0.871190000000    -0.0735647  
C546     C      0.508680000000     0.308760000000     0.897580000000    -0.00479575 
C547     C      0.650580000000     0.458030000000     0.104560000000    -0.00543593 
C548     C      0.639840000000     0.477220000000     0.085040000000    -0.0761553  
C549     C      0.652170000000     0.508060000000     0.101740000000    -0.00461532 
C550     C      0.674560000000     0.519490000000     0.137410000000    -0.00498616 
C551     C      0.685570000000     0.500560000000     0.156790000000    -0.0748245  
C552     C      0.673540000000     0.469740000000     0.139960000000    -0.00569945 
C553     C      0.295290000000     0.445240000000     0.211540000000    -0.00631065 
C554     C      0.294390000000     0.463540000000     0.248430000000    -0.0728135  
C555     C      0.321690000000     0.492560000000     0.258490000000    -0.00618383 
C556     C      0.348470000000     0.504210000000     0.229830000000    -0.00364974 
C557     C      0.348360000000     0.487020000000     0.190680000000    -0.0776523  
C558     C      0.322050000000     0.456870000000     0.182930000000    -0.00356659 
C559     C      0.498410000000     0.635950000000     0.149760000000    -0.0029789  
C560     C      0.468670000000     0.626270000000     0.129310000000    -0.077409   
C561     C      0.455010000000     0.645330000000     0.134160000000    -0.0040235  
C562     C      0.469650000000     0.672290000000     0.162030000000    -0.00517888 
C563     C      0.498400000000     0.680880000000     0.184850000000    -0.0755828  
C564     C      0.513290000000     0.663190000000     0.177020000000    -0.00570776 
C565     C      0.355060000000     0.503880000000     0.930070000000    -0.00522537 
C566     C      0.349460000000     0.515120000000     0.971760000000    -0.0774726  
C567     C      0.320530000000     0.514630000000     0.977490000000    -0.00467938 
C568     C      0.297210000000     0.502100000000     0.942650000000    -0.00641842 
C569     C      0.302430000000     0.489640000000     0.901840000000    -0.0750927  
C570     C      0.331790000000     0.491200000000     0.895620000000    -0.00568111 
C571     C      0.473320000000     0.476630000000     0.070360000000    -0.00628002 
C572     C      0.471610000000     0.499910000000     0.044340000000    -0.072566   
C573     C      0.490350000000     0.511900000000     0.004150000000    -0.00468847 
C574     C      0.510440000000     0.500880000000     0.990230000000    -0.00525495 
C575     C      0.512360000000     0.477770000000     0.016330000000    -0.0737622  
C576     C      0.493610000000     0.465720000000     0.056540000000    -0.00521522 
H1       H      0.698780000000     0.831700000000     0.307850000000     0.0506337  
H2       H      0.662680000000     0.853800000000     0.430600000000     0.0520731  
H3       H      0.608320000000     0.819730000000     0.402950000000     0.0504073  
H4       H      0.644490000000     0.797700000000     0.280200000000     0.0525682  
H5       H      0.881570000000     0.011850000000     0.241260000000     0.0492007  
H6       H      0.794450000000     0.014710000000     0.245620000000     0.0504851  
H7       H      0.774240000000     0.975250000000     0.306790000000     0.0508212  
H8       H      0.860880000000     0.971490000000     0.302680000000     0.0494123  
H9       H      0.808700000000     0.135020000000     0.109470000000     0.0521151  
H10      H      0.866450000000     0.157520000000     0.233220000000     0.0506373  
H11      H      0.848810000000     0.193760000000     0.257700000000     0.0518965  
H12      H      0.791100000000     0.171370000000     0.133930000000     0.0500555  
H13      H      0.516390000000     0.636860000000     0.466170000000     0.0499339  
H14      H      0.428310000000     0.637880000000     0.470760000000     0.0492175  
H15      H      0.448180000000     0.678040000000     0.409120000000     0.0493348  
H16      H      0.535770000000     0.676060000000     0.404520000000     0.050184   
H17      H      0.465230000000     0.457660000000     0.456730000000     0.0501863  
H18      H      0.531290000000     0.491530000000     0.571740000000     0.0524745  
H19      H      0.510420000000     0.524930000000     0.596730000000     0.0527523  
H20      H      0.444390000000     0.491410000000     0.481690000000     0.0498114  
H21      H      0.200070000000     0.808720000000     0.914750000000     0.0507344  
H22      H      0.145060000000     0.788840000000     0.788590000000     0.0510829  
H23      H      0.123830000000     0.821600000000     0.816190000000     0.050275   
H24      H      0.178970000000     0.841500000000     0.942240000000     0.0519409  
H25      H      0.477740000000     0.337050000000     0.690820000000     0.0513251  
H26      H      0.513390000000     0.284450000000     0.617730000000     0.0503179  
H27      H      0.534430000000     0.324770000000     0.556450000000     0.0493244  
H28      H      0.498730000000     0.377020000000     0.630440000000     0.0512919  
H29      H      0.123370000000     0.006190000000     0.758130000000     0.0498136  
H30      H      0.207940000000     0.999320000000     0.744200000000     0.050649   
H31      H      0.188590000000     0.959190000000     0.804400000000     0.0504128  
H32      H      0.103550000000     0.965180000000     0.818540000000     0.048936   
H33      H      0.281130000000     0.148990000000     0.748850000000     0.0503583  
H34      H      0.318430000000     0.130290000000     0.624280000000     0.0523957  
H35      H      0.372490000000     0.166990000000     0.650410000000     0.0502826  
H36      H      0.335240000000     0.185730000000     0.775000000000     0.0519215  
H37      H      0.789950000000     0.329580000000     0.037730000000     0.0495543  
H38      H      0.872330000000     0.387890000000     0.122630000000     0.0512806  
H39      H      0.853320000000     0.346570000000     0.181010000000     0.0510359  
H40      H      0.770620000000     0.287960000000     0.096880000000     0.0500522  
H41      H      0.155880000000     0.599900000000     0.924210000000     0.0495338  
H42      H      0.200620000000     0.675690000000     0.023920000000     0.0488668  
H43      H      0.219400000000     0.714160000000     0.960570000000     0.0497481  
H44      H      0.173900000000     0.638400000000     0.860980000000     0.0488586  
H45      H      0.014730000000     0.531590000000     0.094560000000     0.0512162  
H46      H      0.047420000000     0.501160000000     0.976730000000     0.0506177  
H47      H      0.992680000000     0.469390000000     0.949250000000     0.0506163  
H48      H      0.960040000000     0.500010000000     0.066930000000     0.0521416  
H49      H      0.452090000000     0.677820000000     0.757260000000     0.0492506  
H50      H      0.547460000000     0.697750000000     0.728160000000     0.0493682  
H51      H      0.526060000000     0.650160000000     0.680560000000     0.0506833  
H52      H      0.430700000000     0.630540000000     0.708900000000     0.0492666  
H53      H      0.883260000000     0.026370000000     0.998690000000     0.049088   
H54      H      0.786300000000     0.997200000000     0.035480000000     0.0495278  
H55      H      0.767430000000     0.950950000000     0.985260000000     0.0494161  
H56      H      0.864410000000     0.980620000000     0.947670000000     0.0512914  
H57      H      0.707090000000     0.870700000000     0.802600000000     0.0497476  
H58      H      0.672550000000     0.805620000000     0.918080000000     0.0524486  
H59      H      0.618030000000     0.785870000000     0.892460000000     0.0525488  
H60      H      0.652300000000     0.851000000000     0.777020000000     0.0506168  
H61      H      0.540280000000     0.166940000000     0.825680000000     0.0503806  
H62      H      0.454210000000     0.124680000000     0.907740000000     0.0497548  
H63      H      0.433680000000     0.151630000000     0.860490000000     0.050972   
H64      H      0.519730000000     0.193940000000     0.778390000000     0.0519506  
H65      H      0.548990000000     0.843160000000     0.219530000000     0.0492778  
H66      H      0.452430000000     0.776610000000     0.260170000000     0.0508297  
H67      H      0.433250000000     0.804200000000     0.211160000000     0.0492413  
H68      H      0.529890000000     0.871220000000     0.171510000000     0.0514795  
H69      H      0.431630000000     0.813840000000     0.930450000000     0.0498009  
H70      H      0.516660000000     0.840010000000     0.009900000000     0.0511953  
H71      H      0.534820000000     0.817820000000     0.950220000000     0.0511104  
H72      H      0.450140000000     0.791640000000     0.869820000000     0.0491169  
H73      H      0.520620000000     0.985590000000     0.090910000000     0.0522644  
H74      H      0.454360000000     0.954940000000     0.976200000000     0.0493683  
H75      H      0.474990000000     0.009930000000     0.953710000000     0.0507455  
H76      H      0.541270000000     0.040310000000     0.068380000000     0.0527564  
H77      H      0.206010000000     0.539640000000     0.123860000000     0.0502748  
H78      H      0.108510000000     0.472220000000     0.159000000000     0.0487968  
H79      H      0.126550000000     0.443380000000     0.207330000000     0.0516049  
H80      H      0.224020000000     0.511130000000     0.172740000000     0.0502194  
H81      H      0.104670000000     0.129190000000     0.559220000000     0.0489354  
H82      H      0.200670000000     0.196840000000     0.517620000000     0.0497837  
H83      H      0.220770000000     0.169910000000     0.566180000000     0.0497974  
H84      H      0.124820000000     0.102680000000     0.608580000000     0.0514838  
H85      H      0.177370000000     0.309540000000     0.442960000000     0.0522264  
H86      H      0.120110000000     0.273900000000     0.318820000000     0.0504723  
H87      H      0.139210000000     0.327820000000     0.292730000000     0.0516617  
H88      H      0.196460000000     0.363450000000     0.416870000000     0.0501275  
H89      H      0.108610000000     0.619320000000     0.656720000000     0.0498434  
H90      H      0.203830000000     0.647900000000     0.610750000000     0.049117   
H91      H      0.224860000000     0.694360000000     0.660790000000     0.0507063  
H92      H      0.129540000000     0.665830000000     0.706330000000     0.0524437  
H93      H      0.208430000000     0.528750000000     0.507260000000     0.0490277  
H94      H      0.125850000000     0.505970000000     0.423710000000     0.0508736  
H95      H      0.142610000000     0.481070000000     0.366350000000     0.0508994  
H96      H      0.225580000000     0.503920000000     0.448910000000     0.0501923  
H97      H      0.770310000000     0.293200000000     0.380930000000     0.0499996  
H98      H      0.866750000000     0.320390000000     0.343790000000     0.0519858  
H99      H      0.886590000000     0.366320000000     0.394600000000     0.049311   
H100     H      0.790190000000     0.338870000000     0.432390000000     0.0492769  
H101     H      0.953290000000     0.445400000000     0.563840000000     0.0519982  
H102     H      0.985290000000     0.519810000000     0.461800000000     0.0510281  
H103     H      0.040150000000     0.540230000000     0.486930000000     0.051768   
H104     H      0.008120000000     0.465820000000     0.588970000000     0.0512944  
H105     H      0.514580000000     0.320090000000     0.277490000000     0.0518461  
H106     H      0.429810000000     0.271160000000     0.361620000000     0.0508196  
H107     H      0.447480000000     0.318460000000     0.408580000000     0.0492898  
H108     H      0.532250000000     0.367460000000     0.324430000000     0.050035   
H109     H      0.513170000000     0.225030000000     0.115250000000     0.0502794  
H110     H      0.491680000000     0.142160000000     0.195030000000     0.0509891  
H111     H      0.514580000000     0.125400000000     0.134290000000     0.0510626  
H112     H      0.536050000000     0.207970000000     0.053670000000     0.0493238  
H113     H      0.221920000000     0.028030000000     0.058750000000     0.0493011  
H114     H      0.126420000000     0.996740000000     0.106260000000     0.0511815  
H115     H      0.106440000000     0.949570000000     0.057930000000     0.0488121  
H116     H      0.202030000000     0.980410000000     0.011350000000     0.0493295  
H117     H      0.209160000000     0.182110000000     0.246060000000     0.0503368  
H118     H      0.123150000000     0.091300000000     0.255110000000     0.0495259  
H119     H      0.103300000000     0.111820000000     0.316450000000     0.0492724  
H120     H      0.189790000000     0.202210000000     0.307290000000     0.050343   
H121     H      0.283330000000     0.112130000000     0.244730000000     0.0504464  
H122     H      0.317980000000     0.168710000000     0.120240000000     0.0524907  
H123     H      0.372530000000     0.190810000000     0.147860000000     0.0501992  
H124     H      0.337920000000     0.134240000000     0.272360000000     0.0518687  
H125     H      0.867060000000     0.543550000000     0.841900000000     0.0519121  
H126     H      0.772570000000     0.473940000000     0.886800000000     0.049988   
H127     H      0.794930000000     0.449100000000     0.935290000000     0.049404   
H128     H      0.889370000000     0.518400000000     0.889750000000     0.0490472  
H129     H      0.764430000000     0.474600000000     0.603210000000     0.0501139  
H130     H      0.846470000000     0.496820000000     0.687680000000     0.0511072  
H131     H      0.864730000000     0.473800000000     0.629390000000     0.0511708  
H132     H      0.783010000000     0.451580000000     0.544120000000     0.0492873  
H133     H      0.759250000000     0.815100000000     0.512920000000     0.0506895  
H134     H      0.844020000000     0.855930000000     0.428130000000     0.0517303  
H135     H      0.863600000000     0.826740000000     0.472350000000     0.0495121  
H136     H      0.778690000000     0.785790000000     0.556860000000     0.0488051  
H137     H      0.824250000000     0.777580000000     0.770840000000     0.0516246  
H138     H      0.871700000000     0.869080000000     0.705010000000     0.0486604  
H139     H      0.851950000000     0.889550000000     0.766530000000     0.0501371  
H140     H      0.804800000000     0.797740000000     0.831530000000     0.0517895  
H141     H      0.867790000000     0.702420000000     0.722520000000     0.0518801  
H142     H      0.803920000000     0.664500000000     0.605320000000     0.0503876  
H143     H      0.784730000000     0.611040000000     0.634410000000     0.0495315  
H144     H      0.848560000000     0.649260000000     0.751600000000     0.0517625  
H145     H      0.033030000000     0.156330000000     0.073650000000     0.0504221  
H146     H      0.989590000000     0.195140000000     0.985270000000     0.0501595  
H147     H      0.940730000000     0.167620000000     0.030510000000     0.0509634  
H148     H      0.984040000000     0.128820000000     0.119120000000     0.0519033  
H149     H      0.179340000000     0.208200000000     0.992210000000     0.049043   
H150     H      0.104310000000     0.113260000000     0.962180000000     0.049383   
H151     H      0.130780000000     0.092570000000     0.010640000000     0.0493198  
H152     H      0.206160000000     0.187480000000     0.039930000000     0.0507699  
H153     H      0.285460000000     0.508580000000     0.662410000000     0.0491139  
H154     H      0.316970000000     0.445480000000     0.709700000000     0.0514464  
H155     H      0.364860000000     0.473700000000     0.662040000000     0.0491963  
H156     H      0.332930000000     0.536260000000     0.613740000000     0.0508901  
H157     H      0.188740000000     0.512460000000     0.780810000000     0.0519     
H158     H      0.145630000000     0.426850000000     0.699480000000     0.0505276  
H159     H      0.120100000000     0.448030000000     0.650150000000     0.049695   
H160     H      0.163240000000     0.533650000000     0.731470000000     0.0503336  
H161     H      0.159230000000     0.364390000000     0.908650000000     0.0493891  
H162     H      0.190960000000     0.330890000000     0.793360000000     0.0519598  
H163     H      0.158400000000     0.276980000000     0.821230000000     0.0529544  
H164     H      0.126350000000     0.310210000000     0.936480000000     0.050416   
H165     H      0.698840000000     0.226050000000     0.885060000000     0.0493595  
H166     H      0.677820000000     0.130730000000     0.860640000000     0.0506948  
H167     H      0.630330000000     0.110850000000     0.909200000000     0.0490722  
H168     H      0.651710000000     0.206190000000     0.934450000000     0.0489651  
H169     H      0.836920000000     0.374330000000     0.814820000000     0.0498841  
H170     H      0.875000000000     0.330990000000     0.904680000000     0.0496212  
H171     H      0.846830000000     0.282320000000     0.860040000000     0.050578   
H172     H      0.808800000000     0.325580000000     0.769920000000     0.0516573  
H173     H      0.956640000000     0.101630000000     0.495050000000     0.0498401  
H174     H      0.991250000000     0.195250000000     0.549730000000     0.0519514  
H175     H      0.039660000000     0.214690000000     0.503610000000     0.049764   
H176     H      0.004860000000     0.121240000000     0.448170000000     0.0513063  
H177     H      0.876880000000     0.005190000000     0.596820000000     0.0515319  
H178     H      0.807080000000     0.031870000000     0.564450000000     0.0490934  
H179     H      0.779020000000     0.985510000000     0.514340000000     0.0499231  
H180     H      0.849290000000     0.959380000000     0.546040000000     0.0491155  
H181     H      0.012720000000     0.168620000000     0.699480000000     0.0506763  
H182     H      0.943770000000     0.095560000000     0.789230000000     0.0502449  
H183     H      0.983700000000     0.113090000000     0.851230000000     0.0498064  
H184     H      0.052390000000     0.185860000000     0.760800000000     0.0513123  
H185     H      0.861560000000     0.179800000000     0.624460000000     0.0513172  
H186     H      0.840770000000     0.125230000000     0.750700000000     0.0501523  
H187     H      0.808840000000     0.147430000000     0.778520000000     0.0521609  
H188     H      0.829750000000     0.202090000000     0.652360000000     0.050465   
H189     H      0.368900000000     0.804190000000     0.709730000000     0.0499338  
H190     H      0.340800000000     0.872830000000     0.680120000000     0.0515413  
H191     H      0.294380000000     0.844190000000     0.730450000000     0.049061   
H192     H      0.322890000000     0.775910000000     0.760650000000     0.0509621  
H193     H      0.469310000000     0.809020000000     0.593730000000     0.0519406  
H194     H      0.510640000000     0.894170000000     0.676030000000     0.05088    
H195     H      0.537630000000     0.874060000000     0.724230000000     0.0495845  
H196     H      0.496360000000     0.788890000000     0.641960000000     0.0502402  
H197     H      0.632670000000     0.189460000000     0.335870000000     0.0491467  
H198     H      0.659600000000     0.120850000000     0.372000000000     0.0504198  
H199     H      0.704800000000     0.146350000000     0.318790000000     0.049696   
H200     H      0.677460000000     0.214590000000     0.282060000000     0.051739   
H201     H      0.481190000000     0.106780000000     0.406550000000     0.0497889  
H202     H      0.551870000000     0.202730000000     0.440540000000     0.0511904  
H203     H      0.523730000000     0.221820000000     0.392440000000     0.0495791  
H204     H      0.452710000000     0.125820000000     0.359310000000     0.0519092  
H205     H      0.652200000000     0.118850000000     0.582760000000     0.0499678  
H206     H      0.648700000000     0.204830000000     0.588580000000     0.0490654  
H207     H      0.689100000000     0.224690000000     0.650400000000     0.0491924  
H208     H      0.691660000000     0.138210000000     0.644580000000     0.0502246  
H209     H      0.469450000000     0.988220000000     0.598830000000     0.052022   
H210     H      0.490890000000     0.956810000000     0.470770000000     0.0502519  
H211     H      0.526440000000     0.011510000000     0.448020000000     0.0525062  
H212     H      0.505070000000     0.042980000000     0.576090000000     0.0500864  
H213     H      0.999000000000     0.786760000000     0.501490000000     0.0519688  
H214     H      0.026980000000     0.880800000000     0.548060000000     0.0498246  
H215     H      0.978170000000     0.859750000000     0.593920000000     0.0502871  
H216     H      0.949970000000     0.765830000000     0.546570000000     0.0495039  
H217     H      0.112500000000     0.977490000000     0.451270000000     0.0518173  
H218     H      0.179140000000     0.948240000000     0.491400000000     0.0492723  
H219     H      0.205810000000     0.993770000000     0.543320000000     0.0498471  
H220     H      0.138670000000     0.022480000000     0.503850000000     0.0489794  
H221     H      0.331670000000     0.870450000000     0.226790000000     0.0492677  
H222     H      0.286780000000     0.784330000000     0.146650000000     0.0500688  
H223     H      0.334080000000     0.804610000000     0.097760000000     0.0517665  
H224     H      0.378950000000     0.890680000000     0.177990000000     0.0507868  
H225     H      0.213060000000     0.671780000000     0.273870000000     0.049463   
H226     H      0.145590000000     0.696990000000     0.222410000000     0.0498712  
H227     H      0.120380000000     0.649310000000     0.175110000000     0.0524162  
H228     H      0.188000000000     0.624120000000     0.226110000000     0.0507153  
H229     H      0.278840000000     0.820320000000     0.451410000000     0.0510949  
H230     H      0.334190000000     0.788780000000     0.375510000000     0.049019   
H231     H      0.375870000000     0.812170000000     0.435190000000     0.0503658  
H232     H      0.320130000000     0.843620000000     0.510220000000     0.0512934  
H233     H      0.160280000000     0.782040000000     0.395560000000     0.0521001  
H234     H      0.190710000000     0.845670000000     0.278370000000     0.0506272  
H235     H      0.155870000000     0.865210000000     0.303880000000     0.0497163  
H236     H      0.125750000000     0.801670000000     0.421150000000     0.0516834  
H237     H      0.690360000000     0.465230000000     0.390480000000     0.0490337  
H238     H      0.669710000000     0.539290000000     0.361920000000     0.0502177  
H239     H      0.621510000000     0.511950000000     0.409210000000     0.0492326  
H240     H      0.642600000000     0.438290000000     0.438650000000     0.0495198  
H241     H      0.802460000000     0.475610000000     0.275340000000     0.0519843  
H242     H      0.837480000000     0.555680000000     0.367630000000     0.0506635  
H243     H      0.866190000000     0.535800000000     0.412320000000     0.0495296  
H244     H      0.831110000000     0.455640000000     0.320200000000     0.0501175  
H245     H      0.953020000000     0.818120000000     0.977950000000     0.0502353  
H246     H      0.996740000000     0.782160000000     0.071190000000     0.0501925  
H247     H      0.045760000000     0.809000000000     0.026190000000     0.0507521  
H248     H      0.002160000000     0.844950000000     0.932760000000     0.0517791  
H249     H      0.807940000000     0.770880000000     0.056520000000     0.0490629  
H250     H      0.882830000000     0.865660000000     0.087780000000     0.0493272  
H251     H      0.857190000000     0.886580000000     0.038010000000     0.0497305  
H252     H      0.781940000000     0.791840000000     0.007480000000     0.0516685  
H253     H      0.976370000000     0.811490000000     0.350300000000     0.0505997  
H254     H      0.043130000000     0.885740000000     0.259980000000     0.0498594  
H255     H      0.002300000000     0.867690000000     0.199140000000     0.0498625  
H256     H      0.935810000000     0.793840000000     0.290330000000     0.0514125  
H257     H      0.860380000000     0.668200000000     0.125740000000     0.0503473  
H258     H      0.827230000000     0.704800000000     0.235080000000     0.0526687  
H259     H      0.795140000000     0.651860000000     0.266910000000     0.0523031  
H260     H      0.828050000000     0.615070000000     0.157520000000     0.0502381  
H261     H      0.655790000000     0.531500000000     0.880130000000     0.0500044  
H262     H      0.628330000000     0.436440000000     0.839920000000     0.0490621  
H263     H      0.673880000000     0.456760000000     0.787510000000     0.051809   
H264     H      0.701840000000     0.551880000000     0.828340000000     0.0494101  
H265     H      0.545490000000     0.340440000000     0.943810000000     0.0514027  
H266     H      0.476630000000     0.366610000000     0.902970000000     0.0496093  
H267     H      0.449160000000     0.319090000000     0.855250000000     0.0512777  
H268     H      0.518470000000     0.293320000000     0.895180000000     0.0493177  
H269     H      0.641530000000     0.434200000000     0.092110000000     0.0492876  
H270     H      0.644340000000     0.523400000000     0.087430000000     0.0502761  
H271     H      0.683420000000     0.543360000000     0.149610000000     0.0505987  
H272     H      0.681560000000     0.454620000000     0.154490000000     0.0494068  
H273     H      0.274670000000     0.422640000000     0.203170000000     0.0508429  
H274     H      0.321740000000     0.507090000000     0.286840000000     0.0520998  
H275     H      0.368510000000     0.527480000000     0.236820000000     0.0503525  
H276     H      0.321350000000     0.443020000000     0.153180000000     0.0499547  
H277     H      0.509520000000     0.621730000000     0.146370000000     0.0494707  
H278     H      0.432110000000     0.638430000000     0.118790000000     0.0494684  
H279     H      0.457770000000     0.685670000000     0.167260000000     0.0493465  
H280     H      0.535480000000     0.669310000000     0.194160000000     0.051018   
H281     H      0.377100000000     0.503970000000     0.924540000000     0.0512374  
H282     H      0.315570000000     0.523120000000     0.009330000000     0.0496126  
H283     H      0.274820000000     0.501270000000     0.948260000000     0.0499145  
H284     H      0.336650000000     0.482070000000     0.864330000000     0.0508376  
H285     H      0.459130000000     0.466970000000     0.101490000000     0.0504632  
H286     H      0.489490000000     0.529810000000     0.983320000000     0.0525741  
H287     H      0.524630000000     0.510640000000     0.959110000000     0.0527833  
H288     H      0.494610000000     0.447870000000     0.077330000000     0.0497383  
In1      In     0.411970000000     0.533950000000     0.082860000000     2.40331    
In2      In     0.574790000000     0.447720000000     0.975320000000     2.41673    
In3      In     0.903850000000     0.782690000000     0.129830000000     2.39942    
In4      In     0.750940000000     0.538310000000     0.265650000000     2.42583    
In5      In     0.239960000000     0.780500000000     0.297500000000     2.39722    
In6      In     0.081710000000     0.871020000000     0.412050000000     2.41006    
In7      In     0.581250000000     0.124610000000     0.472130000000     2.41116    
In8      In     0.421290000000     0.874820000000     0.579400000000     2.41837    
In9      In     0.906820000000     0.111340000000     0.636930000000     2.4035     
In10     In     0.758760000000     0.211260000000     0.761670000000     2.4187     
In11     In     0.233020000000     0.443940000000     0.799470000000     2.4145     
In12     In     0.082230000000     0.195880000000     0.922850000000     2.40048    
In13     In     0.867970000000     0.779960000000     0.619900000000     2.40041    
In14     In     0.780880000000     0.535240000000     0.748460000000     2.40821    
In15     In     0.203140000000     0.105450000000     0.136870000000     2.41883    
In16     In     0.452590000000     0.205500000000     0.262140000000     2.413      
In17     In     0.870840000000     0.445820000000     0.470660000000     2.40872    
In18     In     0.122530000000     0.539220000000     0.579900000000     2.40451    
In19     In     0.116760000000     0.195480000000     0.425390000000     2.41635    
In20     In     0.206910000000     0.441920000000     0.304050000000     2.42046    
In21     In     0.448500000000     0.872700000000     0.078520000000     2.41209    
In22     In     0.545380000000     0.123870000000     0.975030000000     2.39622    
In23     In     0.787090000000     0.873730000000     0.908380000000     2.41764    
In24     In     0.536650000000     0.783410000000     0.793820000000     2.39624    
In25     In     0.129040000000     0.570540000000     0.086050000000     2.39539    
In26     In     0.877640000000     0.424200000000     0.965220000000     2.39827    
In27     In     0.203380000000     0.073300000000     0.640350000000     2.41943    
In28     In     0.450670000000     0.238530000000     0.761990000000     2.41966    
In29     In     0.215060000000     0.744530000000     0.800790000000     2.40265    
In30     In     0.117560000000     0.894100000000     0.925020000000     2.41732    
In31     In     0.535750000000     0.413790000000     0.474840000000     2.39354    
In32     In     0.442690000000     0.570390000000     0.583450000000     2.41343    
In33     In     0.868770000000     0.081020000000     0.128940000000     2.42064    
In34     In     0.784540000000     0.243490000000     0.243650000000     2.41474    
In35     In     0.777960000000     0.904130000000     0.417240000000     2.41873    
In36     In     0.529500000000     0.745680000000     0.293820000000     2.42065    
O1       O      0.424980000000     0.585710000000     0.085610000000    -0.486722   
O2       O      0.456490000000     0.573230000000     0.117020000000    -0.490139   
O3       O      0.431210000000     0.500380000000     0.092280000000    -0.479498   
O4       O      0.394820000000     0.530750000000     0.157440000000    -0.490953   
O5       O      0.368000000000     0.532130000000     0.049980000000    -0.479619   
O6       O      0.372200000000     0.489180000000     0.116530000000    -0.483035   
O7       O      0.450290000000     0.534300000000     0.037810000000    -0.479949   
O8       O      0.397660000000     0.523120000000     0.006730000000    -0.48533    
O9       O      0.612490000000     0.484820000000     0.022030000000    -0.499573   
O10      O      0.599130000000     0.437310000000     0.035900000000    -0.473908   
O11      O      0.549880000000     0.475700000000     0.964390000000    -0.480693   
O12      O      0.605040000000     0.486180000000     0.922110000000    -0.473334   
O13      O      0.555530000000     0.394670000000     0.975930000000    -0.474194   
O14      O      0.603770000000     0.442540000000     0.917560000000    -0.495359   
O15      O      0.538650000000     0.447770000000     0.025730000000    -0.491964   
O16      O      0.531390000000     0.412180000000     0.934900000000    -0.491484   
O17      O      0.860520000000     0.776560000000     0.090550000000    -0.490788   
O18      O      0.890110000000     0.820710000000     0.123140000000    -0.488488   
O19      O      0.885120000000     0.729560000000     0.125700000000    -0.478528   
O20      O      0.923420000000     0.795760000000     0.056040000000    -0.488042   
O21      O      0.948760000000     0.824970000000     0.160420000000    -0.479253   
O22      O      0.943940000000     0.776450000000     0.100580000000    -0.480807   
O23      O      0.865780000000     0.746220000000     0.177110000000    -0.479285   
O24      O      0.916410000000     0.790100000000     0.206830000000    -0.483082   
O25      O      0.713920000000     0.537350000000     0.217450000000    -0.500846   
O26      O      0.725450000000     0.501390000000     0.207930000000    -0.47308    
O27      O      0.772900000000     0.591600000000     0.270380000000    -0.47839    
O28      O      0.721010000000     0.545070000000     0.321110000000    -0.474935   
O29      O      0.777740000000     0.511340000000     0.262860000000    -0.478336   
O30      O      0.718790000000     0.500850000000     0.317650000000    -0.496001   
O31      O      0.786510000000     0.573110000000     0.213600000000    -0.493963   
O32      O      0.791050000000     0.546950000000     0.314490000000    -0.496614   
O33      O      0.256820000000     0.797330000000     0.371320000000    -0.487123   
O34      O      0.281550000000     0.779270000000     0.333950000000    -0.478287   
O35      O      0.219210000000     0.812760000000     0.287170000000    -0.477486   
O36      O      0.259830000000     0.781940000000     0.225210000000    -0.490874   
O37      O      0.223590000000     0.727700000000     0.299200000000    -0.481211   
O38      O      0.279290000000     0.825060000000     0.262060000000    -0.482709   
O39      O      0.200640000000     0.778860000000     0.341760000000    -0.481463   
O40      O      0.196960000000     0.742570000000     0.259040000000    -0.489801   
O41      O      0.125840000000     0.904880000000     0.453050000000    -0.493344   
O42      O      0.101150000000     0.923920000000     0.417130000000    -0.479229   
O43      O      0.103180000000     0.839360000000     0.419270000000    -0.480873   
O44      O      0.050610000000     0.831860000000     0.463410000000    -0.466832   
O45      O      0.064450000000     0.883390000000     0.344890000000    -0.471123   
O46      O      0.054980000000     0.876780000000     0.472550000000    -0.487063   
O47      O      0.114060000000     0.867210000000     0.358140000000    -0.493175   
O48      O      0.034210000000     0.839530000000     0.377760000000    -0.497805   
O49      O      0.536530000000     0.116240000000     0.435180000000    -0.490462   
O50      O      0.562670000000     0.159040000000     0.473140000000    -0.471869   
O51      O      0.555810000000     0.071850000000     0.459000000000    -0.47851    
O52      O      0.610940000000     0.116530000000     0.417880000000    -0.474134   
O53      O      0.605840000000     0.159040000000     0.533110000000    -0.47426    
O54      O      0.608800000000     0.158420000000     0.413210000000    -0.494958   
O55      O      0.545970000000     0.087640000000     0.522470000000    -0.492099   
O56      O      0.619650000000     0.125450000000     0.517750000000    -0.497657   
O57      O      0.375400000000     0.863240000000     0.543240000000    -0.498201   
O58      O      0.401410000000     0.843380000000     0.514150000000    -0.472276   
O59      O      0.442040000000     0.927630000000     0.589250000000    -0.480257   
O60      O      0.390980000000     0.880370000000     0.635070000000    -0.469734   
O61      O      0.446070000000     0.845770000000     0.578310000000    -0.47653    
O62      O      0.393870000000     0.838620000000     0.635440000000    -0.492666   
O63      O      0.453400000000     0.912200000000     0.526910000000    -0.497155   
O64      O      0.463970000000     0.885280000000     0.623740000000    -0.494977   
O65      O      0.955410000000     0.140980000000     0.669630000000    -0.494739   
O66      O      0.923150000000     0.098870000000     0.704910000000    -0.47039    
O67      O      0.885230000000     0.142890000000     0.628470000000    -0.479984   
O68      O      0.938840000000     0.151170000000     0.587150000000    -0.466855   
O69      O      0.888370000000     0.058610000000     0.631420000000    -0.478979   
O70      O      0.931060000000     0.105340000000     0.573350000000    -0.486356   
O71      O      0.876990000000     0.117960000000     0.692040000000    -0.493582   
O72      O      0.861170000000     0.076370000000     0.599630000000    -0.491606   
O73      O      0.799220000000     0.243690000000     0.809330000000    -0.495685   
O74      O      0.785630000000     0.265120000000     0.756840000000    -0.476395   
O75      O      0.781060000000     0.180540000000     0.771300000000    -0.476914   
O76      O      0.728030000000     0.175010000000     0.817080000000    -0.475138   
O77      O      0.733560000000     0.222280000000     0.703000000000    -0.472931   
O78      O      0.727360000000     0.217800000000     0.813640000000    -0.495303   
O79      O      0.793590000000     0.209420000000     0.710820000000    -0.493619   
O80      O      0.721820000000     0.174810000000     0.713320000000    -0.497708   
O81      O      0.190840000000     0.434060000000     0.754120000000    -0.494865   
O82      O      0.210170000000     0.474610000000     0.797640000000    -0.479142   
O83      O      0.212170000000     0.390840000000     0.793460000000    -0.481762   
O84      O      0.263520000000     0.436510000000     0.746260000000    -0.467314   
O85      O      0.252080000000     0.475080000000     0.865110000000    -0.471393   
O86      O      0.260900000000     0.478320000000     0.741440000000    -0.488952   
O87      O      0.200250000000     0.408040000000     0.853340000000    -0.495226   
O88      O      0.279690000000     0.457470000000     0.834590000000    -0.498087   
O89      O      0.070410000000     0.189570000000     0.845430000000    -0.48178    
O90      O      0.037240000000     0.154520000000     0.890840000000    -0.480503   
O91      O      0.100560000000     0.248750000000     0.930750000000    -0.477679   
O92      O      0.062410000000     0.180440000000     0.996020000000    -0.488584   
O93      O      0.096450000000     0.158120000000     0.927700000000    -0.488822   
O94      O      0.042240000000     0.201430000000     0.954140000000    -0.480421   
O95      O      0.120010000000     0.233820000000     0.877030000000    -0.479808   
O96      O      0.126010000000     0.202090000000     0.960740000000    -0.491751   
O97      O      0.845910000000     0.778550000000     0.689870000000    -0.489413   
O98      O      0.876620000000     0.823790000000     0.661580000000    -0.474404   
O99      O      0.836760000000     0.726450000000     0.610560000000    -0.477385   
O100     O      0.866550000000     0.800700000000     0.549430000000    -0.492261   
O101     O      0.921640000000     0.814890000000     0.621590000000    -0.476789   
O102     O      0.823160000000     0.775530000000     0.586060000000    -0.486148   
O103     O      0.870050000000     0.743880000000     0.666400000000    -0.485374   
O104     O      0.904480000000     0.774030000000     0.579140000000    -0.488811   
O105     O      0.746070000000     0.544110000000     0.789020000000    -0.492953   
O106     O      0.727680000000     0.500260000000     0.753700000000    -0.478427   
O107     O      0.811630000000     0.588770000000     0.752760000000    -0.481614   
O108     O      0.820610000000     0.546210000000     0.800780000000    -0.46628    
O109     O      0.768800000000     0.503430000000     0.683770000000    -0.471273   
O110     O      0.776090000000     0.504220000000     0.810170000000    -0.487485   
O111     O      0.783300000000     0.569330000000     0.692280000000    -0.492671   
O112     O      0.814110000000     0.521380000000     0.715270000000    -0.497355   
O113     O      0.211340000000     0.071610000000     0.093560000000    -0.492898   
O114     O      0.170660000000     0.051910000000     0.137690000000    -0.475579   
O115     O      0.256710000000     0.134850000000     0.126670000000    -0.478141   
O116     O      0.210680000000     0.142350000000     0.081830000000    -0.473924   
O117     O      0.168850000000     0.094990000000     0.198470000000    -0.472658   
O118     O      0.166300000000     0.099620000000     0.083220000000    -0.495993   
O119     O      0.239530000000     0.106920000000     0.188050000000    -0.49378    
O120     O      0.202410000000     0.142660000000     0.182300000000    -0.498631   
O121     O      0.467000000000     0.173590000000     0.226400000000    -0.496586   
O122     O      0.484840000000     0.219150000000     0.197250000000    -0.470728   
O123     O      0.399180000000     0.171210000000     0.268370000000    -0.478271   
O124     O      0.446240000000     0.169140000000     0.316890000000    -0.47008    
O125     O      0.480630000000     0.259460000000     0.263220000000    -0.477569   
O126     O      0.488690000000     0.213930000000     0.318630000000    -0.490464   
O127     O      0.416030000000     0.199300000000     0.207360000000    -0.495999   
O128     O      0.440260000000     0.235670000000     0.307390000000    -0.494764   
O129     O      0.878100000000     0.410560000000     0.429630000000    -0.491943   
O130     O      0.834640000000     0.392890000000     0.466670000000    -0.485697   
O131     O      0.924030000000     0.481210000000     0.464090000000    -0.480634   
O132     O      0.854620000000     0.450240000000     0.398140000000    -0.490401   
O133     O      0.826740000000     0.442950000000     0.504700000000    -0.481927   
O134     O      0.875370000000     0.491030000000     0.440720000000    -0.483502   
O135     O      0.908890000000     0.444650000000     0.514510000000    -0.481317   
O136     O      0.867080000000     0.455870000000     0.546890000000    -0.487618   
O137     O      0.125860000000     0.527800000000     0.504120000000    -0.488876   
O138     O      0.165420000000     0.538760000000     0.546920000000    -0.482173   
O139     O      0.069290000000     0.504290000000     0.586720000000    -0.4788     
O140     O      0.139940000000     0.537040000000     0.652480000000    -0.490406   
O141     O      0.159150000000     0.592210000000     0.581740000000    -0.485197   
O142     O      0.115480000000     0.494210000000     0.614740000000    -0.479925   
O143     O      0.084630000000     0.540680000000     0.535980000000    -0.48029    
O144     O      0.116020000000     0.575480000000     0.619280000000    -0.492037   
O145     O      0.082470000000     0.203400000000     0.468360000000    -0.492681   
O146     O      0.062640000000     0.164110000000     0.422180000000    -0.473475   
O147     O      0.145530000000     0.248660000000     0.435640000000    -0.477899   
O148     O      0.155520000000     0.203080000000     0.477880000000    -0.476305   
O149     O      0.105670000000     0.158490000000     0.368090000000    -0.473408   
O150     O      0.110800000000     0.161010000000     0.482760000000    -0.495675   
O151     O      0.117310000000     0.231130000000     0.374370000000    -0.493037   
O152     O      0.153210000000     0.196080000000     0.375840000000    -0.497596   
O153     O      0.173850000000     0.455090000000     0.339470000000    -0.498395   
O154     O      0.220320000000     0.474710000000     0.367830000000    -0.47129    
O155     O      0.173860000000     0.388740000000     0.297670000000    -0.481323   
O156     O      0.169830000000     0.435650000000     0.249770000000    -0.46901    
O157     O      0.261240000000     0.470730000000     0.303420000000    -0.477281   
O158     O      0.215460000000     0.477150000000     0.246960000000    -0.491953   
O159     O      0.202190000000     0.406170000000     0.358620000000    -0.497716   
O160     O      0.238050000000     0.431230000000     0.258070000000    -0.495801   
O161     O      0.416630000000     0.882280000000     0.124790000000    -0.494416   
O162     O      0.394200000000     0.842500000000     0.079820000000    -0.477126   
O163     O      0.481800000000     0.925580000000     0.086760000000    -0.480737   
O164     O      0.485700000000     0.879230000000     0.132670000000    -0.467531   
O165     O      0.436330000000     0.841870000000     0.012430000000    -0.471764   
O166     O      0.440790000000     0.836850000000     0.134500000000    -0.489155   
O167     O      0.451970000000     0.909810000000     0.027150000000    -0.494237   
O168     O      0.482510000000     0.861410000000     0.041560000000    -0.498532   
O169     O      0.545280000000     0.165770000000     0.010920000000    -0.479844   
O170     O      0.534270000000     0.125740000000     0.051670000000    -0.484204   
O171     O      0.510520000000     0.071190000000     0.964060000000    -0.476258   
O172     O      0.500330000000     0.118900000000     0.941910000000    -0.481438   
O173     O      0.598470000000     0.161370000000     0.971830000000    -0.483914   
O174     O      0.543000000000     0.141330000000     0.902650000000    -0.490751   
O175     O      0.545240000000     0.085040000000     0.017660000000    -0.478623   
O176     O      0.582970000000     0.117660000000     0.937850000000    -0.490073   
O177     O      0.794710000000     0.837810000000     0.870740000000    -0.50171    
O178     O      0.818210000000     0.884110000000     0.842750000000    -0.472947   
O179     O      0.733430000000     0.842770000000     0.915950000000    -0.47969    
O180     O      0.778310000000     0.837020000000     0.964300000000    -0.468538   
O181     O      0.821030000000     0.926950000000     0.911860000000    -0.477196   
O182     O      0.822830000000     0.879770000000     0.964050000000    -0.491456   
O183     O      0.751030000000     0.871920000000     0.855920000000    -0.493154   
O184     O      0.777680000000     0.907400000000     0.950010000000    -0.494137   
O185     O      0.542000000000     0.745240000000     0.757690000000    -0.489053   
O186     O      0.498120000000     0.731030000000     0.791660000000    -0.483453   
O187     O      0.590210000000     0.816850000000     0.784700000000    -0.47744    
O188     O      0.542550000000     0.828190000000     0.759800000000    -0.482721   
O189     O      0.493780000000     0.783240000000     0.828290000000    -0.478505   
O190     O      0.520800000000     0.786060000000     0.720230000000    -0.490872   
O191     O      0.574450000000     0.782440000000     0.838540000000    -0.479508   
O192     O      0.534670000000     0.796520000000     0.869250000000    -0.485699   
O193     O      0.118500000000     0.525370000000     0.123230000000    -0.494699   
O194     O      0.164150000000     0.552890000000     0.092620000000    -0.485232   
O195     O      0.075580000000     0.551730000000     0.093480000000    -0.474618   
O196     O      0.119200000000     0.602200000000     0.132830000000    -0.466924   
O197     O      0.150570000000     0.582870000000     0.012560000000    -0.472834   
O198     O      0.157000000000     0.594520000000     0.151610000000    -0.483149   
O199     O      0.091690000000     0.539810000000     0.032460000000    -0.486528   
O200     O      0.157050000000     0.620270000000     0.056350000000    -0.489322   
O201     O      0.874170000000     0.409400000000     0.041030000000    -0.483498   
O202     O      0.833990000000     0.381930000000     0.998520000000    -0.479237   
O203     O      0.931010000000     0.443500000000     0.956210000000    -0.479487   
O204     O      0.882680000000     0.384080000000     0.934240000000    -0.483063   
O205     O      0.840710000000     0.440050000000     0.964080000000    -0.485623   
O206     O      0.861160000000     0.403690000000     0.892520000000    -0.488611   
O207     O      0.915860000000     0.462000000000     0.011010000000    -0.478916   
O208     O      0.883310000000     0.466770000000     0.925570000000    -0.490855   
O209     O      0.202440000000     0.034560000000     0.684040000000    -0.499349   
O210     O      0.168520000000     0.048020000000     0.700900000000    -0.473663   
O211     O      0.257090000000     0.099350000000     0.631030000000    -0.479219   
O212     O      0.212230000000     0.044670000000     0.585440000000    -0.472787   
O213     O      0.169270000000     0.092430000000     0.640760000000    -0.473711   
O214     O      0.168810000000     0.044870000000     0.582810000000    -0.49643    
O215     O      0.238610000000     0.108400000000     0.692540000000    -0.494549   
O216     O      0.211330000000     0.116120000000     0.599640000000    -0.492264   
O217     O      0.441520000000     0.197220000000     0.807610000000    -0.495333   
O218     O      0.481730000000     0.215870000000     0.762670000000    -0.47696    
O219     O      0.396820000000     0.215270000000     0.769310000000    -0.479734   
O220     O      0.442710000000     0.267930000000     0.816060000000    -0.470528   
O221     O      0.483180000000     0.259360000000     0.697720000000    -0.471602   
O222     O      0.486100000000     0.267420000000     0.818470000000    -0.491918   
O223     O      0.415000000000     0.205570000000     0.708260000000    -0.497495   
O224     O      0.460050000000     0.282840000000     0.724540000000    -0.498416   
O225     O      0.250290000000     0.790460000000     0.765160000000    -0.494211   
O226     O      0.268260000000     0.762870000000     0.794440000000    -0.481595   
O227     O      0.181890000000     0.764590000000     0.792670000000    -0.47671    
O228     O      0.174560000000     0.713130000000     0.751330000000    -0.468311   
O229     O      0.226420000000     0.730970000000     0.871680000000    -0.473218   
O230     O      0.220890000000     0.721390000000     0.736070000000    -0.485642   
O231     O      0.207530000000     0.773410000000     0.855870000000    -0.491097   
O232     O      0.189340000000     0.695080000000     0.831440000000    -0.491077   
O233     O      0.153110000000     0.929130000000     0.873830000000    -0.497704   
O234     O      0.105810000000     0.920310000000     0.869020000000    -0.473129   
O235     O      0.147160000000     0.870520000000     0.934720000000    -0.478685   
O236     O      0.156730000000     0.926410000000     0.976260000000    -0.475161   
O237     O      0.063220000000     0.867970000000     0.920520000000    -0.475676   
O238     O      0.112120000000     0.924100000000     0.980370000000    -0.494974   
O239     O      0.118180000000     0.858900000000     0.874170000000    -0.492924   
O240     O      0.084740000000     0.854760000000     0.973590000000    -0.494372   
O241     O      0.588930000000     0.429900000000     0.473570000000    -0.481038   
O242     O      0.573670000000     0.457780000000     0.438030000000    -0.486864   
O243     O      0.501080000000     0.431980000000     0.464760000000    -0.477848   
O244     O      0.533440000000     0.395100000000     0.401450000000    -0.491208   
O245     O      0.539960000000     0.374640000000     0.512630000000    -0.476091   
O246     O      0.491680000000     0.371830000000     0.442360000000    -0.484399   
O247     O      0.535830000000     0.452230000000     0.518430000000    -0.480355   
O248     O      0.520390000000     0.398110000000     0.549490000000    -0.485503   
O249     O      0.479400000000     0.607050000000     0.535070000000    -0.498374   
O250     O      0.431300000000     0.594200000000     0.523440000000    -0.47305    
O251     O      0.473090000000     0.547770000000     0.593100000000    -0.478234   
O252     O      0.480400000000     0.600760000000     0.637790000000    -0.473897   
O253     O      0.388630000000     0.547980000000     0.582190000000    -0.474747   
O254     O      0.437170000000     0.601260000000     0.637340000000    -0.494611   
O255     O      0.443100000000     0.534480000000     0.533470000000    -0.490197   
O256     O      0.408770000000     0.528510000000     0.627650000000    -0.492605   
O257     O      0.901720000000     0.120590000000     0.080980000000    -0.495016   
O258     O      0.923130000000     0.106590000000     0.133160000000    -0.47456    
O259     O      0.839320000000     0.104720000000     0.118500000000    -0.47737    
O260     O      0.830940000000     0.049630000000     0.075450000000    -0.474887   
O261     O      0.879480000000     0.055450000000     0.187290000000    -0.473669   
O262     O      0.875140000000     0.050890000000     0.075020000000    -0.496335   
O263     O      0.868990000000     0.117210000000     0.178420000000    -0.494737   
O264     O      0.832000000000     0.045460000000     0.178410000000    -0.498776   
O265     O      0.818960000000     0.290250000000     0.210360000000    -0.498735   
O266     O      0.774080000000     0.263220000000     0.177490000000    -0.473894   
O267     O      0.815180000000     0.220890000000     0.251830000000    -0.480483   
O268     O      0.822310000000     0.271940000000     0.298590000000    -0.467726   
O269     O      0.731190000000     0.225010000000     0.247180000000    -0.477081   
O270     O      0.777360000000     0.268980000000     0.304080000000    -0.489078   
O271     O      0.788060000000     0.211270000000     0.189810000000    -0.49457    
O272     O      0.749230000000     0.199060000000     0.281890000000    -0.494025   
O273     O      0.769310000000     0.863450000000     0.464070000000    -0.494048   
O274     O      0.806120000000     0.878390000000     0.413550000000    -0.475483   
O275     O      0.724260000000     0.881370000000     0.425560000000    -0.477332   
O276     O      0.771540000000     0.934160000000     0.472470000000    -0.473828   
O277     O      0.814480000000     0.929340000000     0.358400000000    -0.472584   
O278     O      0.815200000000     0.934320000000     0.470880000000    -0.496924   
O279     O      0.741790000000     0.869690000000     0.365500000000    -0.495236   
O280     O      0.779250000000     0.941820000000     0.370630000000    -0.498558   
O281     O      0.528660000000     0.707660000000     0.339120000000    -0.499271   
O282     O      0.494650000000     0.721280000000     0.354540000000    -0.473681   
O283     O      0.583180000000     0.770130000000     0.285010000000    -0.478157   
O284     O      0.538070000000     0.717300000000     0.238250000000    -0.474021   
O285     O      0.496500000000     0.766100000000     0.293940000000    -0.47549    
O286     O      0.493310000000     0.714800000000     0.239310000000    -0.496113   
O287     O      0.565190000000     0.780450000000     0.345910000000    -0.493363   
O288     O      0.538110000000     0.788300000000     0.251750000000    -0.493599   


