data_structure

_audit_creation_method RASPA-1.0
_audit_creation_date 2023-5-22
_audit_author_name 'Poobodin Mano'

_cell_length_a    27.7387
_cell_length_b    27.7474
_cell_length_c    36.7888
_cell_angle_alpha 89.8764
_cell_angle_beta  90.3712
_cell_angle_gamma 90.1738
_cell_volume      28314.7

_symmetry_cell_setting          triclinic
_symmetry_space_group_name_Hall 'P 1'
_symmetry_space_group_name_H-M  'P 1'
_symmetry_Int_Tables_number     1

_symmetry_equiv_pos_as_xyz 'x,y,z'

loop_
_atom_site_label
_atom_site_type_symbol
_atom_site_fract_x
_atom_site_fract_y
_atom_site_fract_z
_atom_site_charge
C1       C      0.036940000000     0.193620000000     0.962140000000     0.350275   
C2       C      0.912970000000     0.312420000000     0.435500000000     0.349916   
C3       C      0.913060000000     0.218200000000     0.022520000000     0.350246   
C4       C      0.037180000000     0.336540000000     0.996140000000     0.349663   
C5       C      0.028780000000     0.194910000000     0.221140000000     0.350937   
C6       C      0.906050000000     0.311240000000     0.188080000000     0.349306   
C7       C      0.907370000000     0.224830000000     0.282170000000     0.348717   
C8       C      0.029220000000     0.341940000000     0.248370000000     0.35103    
C9       C      0.678620000000     0.546790000000     0.053400000000     0.350839   
C10      C      0.794890000000     0.423880000000     0.085840000000     0.349628   
C11      C      0.708040000000     0.425250000000     0.992050000000     0.348483   
C12      C      0.825430000000     0.547170000000     0.025610000000     0.350673   
C13      C      0.675540000000     0.554140000000     0.315220000000     0.35064    
C14      C      0.794470000000     0.430480000000     0.342280000000     0.349967   
C15      C      0.700360000000     0.429780000000     0.254950000000     0.350349   
C16      C      0.818460000000     0.554120000000     0.281310000000     0.3502     
C17      C      0.817800000000     0.982180000000     0.178020000000     0.349574   
C18      C      0.700220000000     0.106620000000     0.205130000000     0.350588   
C19      C      0.793060000000     0.104700000000     0.117230000000     0.349515   
C20      C      0.673860000000     0.981590000000     0.145830000000     0.349521   
C21      C      0.827870000000     0.985010000000     0.442290000000     0.350084   
C22      C      0.709350000000     0.106780000000     0.974230000000     0.348849   
C23      C      0.798190000000     0.109310000000     0.383040000000     0.349874   
C24      C      0.681770000000     0.985170000000     0.412980000000     0.349267   
C25      C      0.465390000000     0.334340000000     0.098210000000     0.350148   
C26      C      0.589750000000     0.216980000000     0.070800000000     0.350415   
C27      C      0.587640000000     0.309210000000     0.159390000000     0.349369   
C28      C      0.464680000000     0.190140000000     0.130070000000     0.350359   
C29      C      0.466710000000     0.344680000000     0.332180000000     0.350753   
C30      C      0.588550000000     0.225810000000     0.301030000000     0.348933   
C31      C      0.591380000000     0.315590000000     0.391580000000     0.350122   
C32      C      0.466880000000     0.199110000000     0.362270000000     0.350165   
C33      C      0.323760000000     0.480130000000     0.065180000000     0.350569   
C34      C      0.204670000000     0.603640000000     0.092310000000     0.349667   
C35      C      0.298660000000     0.604720000000     0.005470000000     0.350695   
C36      C      0.180490000000     0.480210000000     0.031740000000     0.350068   
C37      C      0.173730000000     0.487520000000     0.276060000000     0.350418   
C38      C      0.291030000000     0.609640000000     0.242510000000     0.348655   
C39      C      0.204410000000     0.610620000000     0.335910000000     0.349496   
C40      C      0.320740000000     0.487870000000     0.303410000000     0.350378   
C41      C      0.532680000000     0.834540000000     0.113300000000     0.350287   
C42      C      0.408480000000     0.717990000000     0.142490000000     0.350348   
C43      C      0.410640000000     0.807730000000     0.051700000000     0.348909   
C44      C      0.532710000000     0.689020000000     0.083040000000     0.350682   
C45      C      0.535190000000     0.843170000000     0.381170000000     0.350237   
C46      C      0.412440000000     0.724010000000     0.410400000000     0.349316   
C47      C      0.409610000000     0.816370000000     0.321770000000     0.350399   
C48      C      0.534240000000     0.699100000000     0.349180000000     0.35009    
C49      C      0.317630000000     0.049270000000     0.162500000000     0.349921   
C50      C      0.201230000000     0.925250000000     0.132680000000     0.350212   
C51      C      0.290140000000     0.927640000000     0.224370000000     0.349094   
C52      C      0.171750000000     0.049470000000     0.192260000000     0.350491   
C53      C      0.181650000000     0.052250000000     0.427740000000     0.350473   
C54      C      0.299140000000     0.927800000000     0.954930000000     0.350755   
C55      C      0.206140000000     0.929840000000     0.366590000000     0.349393   
C56      C      0.325270000000     0.052970000000     0.395120000000     0.350301   
C57      C      0.970990000000     0.838770000000     0.970420000000     0.350571   
C58      C      0.093270000000     0.722240000000     0.437470000000     0.349359   
C59      C      0.092840000000     0.808520000000     0.031470000000     0.348984   
C60      C      0.970540000000     0.691680000000     0.997520000000     0.350191   
C61      C      0.962520000000     0.839630000000     0.211490000000     0.350285   
C62      C      0.086090000000     0.720570000000     0.184850000000     0.349841   
C63      C      0.086950000000     0.814760000000     0.271650000000     0.350149   
C64      C      0.962380000000     0.696590000000     0.245310000000     0.350172   
C65      C      0.181380000000     0.903390000000     0.304320000000    -0.00859471 
C66      C      0.178030000000     0.898260000000     0.342190000000    -0.0742647  
C67      C      0.145900000000     0.864130000000     0.356650000000    -0.00486442 
C68      C      0.116930000000     0.836330000000     0.333640000000    -0.00510102 
C69      C      0.119620000000     0.842080000000     0.295780000000    -0.0765077  
C70      C      0.152440000000     0.875530000000     0.281290000000    -0.00173243 
C71      C      0.140350000000     0.860660000000     0.119710000000    -0.0029946  
C72      C      0.175870000000     0.892730000000     0.107180000000    -0.0758688  
C73      C      0.185580000000     0.894970000000     0.069790000000    -0.0049183  
C74      C      0.159430000000     0.866630000000     0.045250000000    -0.00561124 
C75      C      0.123140000000     0.835380000000     0.057660000000    -0.0745266  
C76      C      0.114230000000     0.832230000000     0.095160000000    -0.00759444 
C77      C      0.346090000000     0.878690000000     0.310870000000    -0.00193191 
C78      C      0.376500000000     0.842650000000     0.297280000000    -0.0765944  
C79      C      0.376410000000     0.833180000000     0.259800000000    -0.00441646 
C80      C      0.347390000000     0.860050000000     0.236200000000    -0.00599896 
C81      C      0.317830000000     0.896850000000     0.249660000000    -0.0742522  
C82      C      0.317030000000     0.905570000000     0.287240000000    -0.00882528 
C83      C      0.387790000000     0.834430000000     0.988970000000    -0.00938827 
C84      C      0.379790000000     0.835680000000     0.026620000000    -0.0735896  
C85      C      0.343700000000     0.865900000000     0.040310000000    -0.00625607 
C86      C      0.316800000000     0.895100000000     0.016870000000    -0.00402373 
C87      C      0.325520000000     0.894680000000     0.979310000000    -0.0772166  
C88      C      0.360870000000     0.863650000000     0.965500000000    -0.0015655  
C89      C      0.144830000000     0.675700000000     0.349260000000    -0.00423475 
C90      C      0.178550000000     0.641740000000     0.361810000000    -0.0753465  
C91      C      0.185560000000     0.636070000000     0.399430000000    -0.00584492 
C92      C      0.158660000000     0.663060000000     0.424060000000    -0.00476362 
C93      C      0.124230000000     0.696310000000     0.411510000000    -0.0750738  
C94      C      0.117950000000     0.702740000000     0.373880000000    -0.006325   
C95      C      0.315270000000     0.630900000000     0.179060000000    -0.00802271 
C96      C      0.318100000000     0.639880000000     0.216600000000    -0.0743974  
C97      C      0.349240000000     0.676190000000     0.229340000000    -0.00576803 
C98      C      0.377780000000     0.702310000000     0.205100000000    -0.00476987 
C99      C      0.375840000000     0.692570000000     0.167670000000    -0.0761579  
C100     C      0.343880000000     0.657010000000     0.154800000000    -0.00253747 
C101     C      0.144180000000     0.669040000000     0.100860000000    -0.00313474 
C102     C      0.176580000000     0.635640000000     0.116040000000    -0.0754012  
C103     C      0.180280000000     0.631700000000     0.154000000000    -0.00714728 
C104     C      0.151520000000     0.660060000000     0.176400000000    -0.00272605 
C105     C      0.118470000000     0.692810000000     0.161200000000    -0.0757036  
C106     C      0.115370000000     0.697340000000     0.123240000000    -0.00664617 
C107     C      0.387620000000     0.698480000000     0.972730000000    -0.00888761 
C108     C      0.381220000000     0.695910000000     0.434900000000    -0.0740635  
C109     C      0.346200000000     0.664500000000     0.420540000000    -0.00526921 
C110     C      0.318740000000     0.635500000000     0.443580000000    -0.0047042  
C111     C      0.325720000000     0.637420000000     0.981380000000    -0.0769968  
C112     C      0.360090000000     0.669520000000     0.995800000000    -0.00164794 
C113     C      0.408110000000     0.406570000000     0.353550000000    -0.00499045 
C114     C      0.431360000000     0.383220000000     0.324700000000    -0.0758628  
C115     C      0.419270000000     0.395880000000     0.288820000000    -0.00581273 
C116     C      0.383630000000     0.430310000000     0.281920000000    -0.00505713 
C117     C      0.359870000000     0.453130000000     0.310780000000    -0.0757872  
C118     C      0.372900000000     0.441410000000     0.346650000000    -0.0055295  
C119     C      0.421670000000     0.148470000000     0.406900000000    -0.00546544 
C120     C      0.432310000000     0.160180000000     0.370680000000    -0.0757104  
C121     C      0.408760000000     0.135130000000     0.342510000000    -0.00501292 
C122     C      0.374680000000     0.099480000000     0.350410000000    -0.00587185 
C123     C      0.363220000000     0.088570000000     0.386640000000    -0.0756889  
C124     C      0.387270000000     0.113150000000     0.414800000000    -0.00501686 
C125     C      0.407950000000     0.398320000000     0.117850000000    -0.00515137 
C126     C      0.430810000000     0.373150000000     0.089700000000    -0.075437   
C127     C      0.419440000000     0.384640000000     0.053480000000    -0.0056058  
C128     C      0.385060000000     0.419900000000     0.045560000000    -0.00501329 
C129     C      0.361690000000     0.444580000000     0.073710000000    -0.0756466  
C130     C      0.373840000000     0.433860000000     0.109930000000    -0.00579845 
C131     C      0.418750000000     0.139830000000     0.174580000000    -0.00575791 
C132     C      0.428890000000     0.152290000000     0.138410000000    -0.0757336  
C133     C      0.403300000000     0.129440000000     0.110180000000    -0.00498804 
C134     C      0.367740000000     0.095240000000     0.117980000000    -0.00551625 
C135     C      0.356790000000     0.083620000000     0.154160000000    -0.0756363  
C136     C      0.382850000000     0.105970000000     0.182390000000    -0.00514051 
C137     C      0.879600000000     0.937750000000     0.485410000000    -0.005929   
C138     C      0.866450000000     0.949630000000     0.449590000000    -0.075714   
C139     C      0.889310000000     0.926110000000     0.420640000000    -0.00507362 
C140     C      0.924140000000     0.890840000000     0.427380000000    -0.00549417 
C141     C      0.936320000000     0.878000000000     0.963200000000    -0.0759838  
C142     C      0.914000000000     0.902040000000     0.992150000000    -0.00512002 
C143     C      0.630630000000     0.939360000000     0.368690000000    -0.00565733 
C144     C      0.642680000000     0.950550000000     0.404820000000    -0.0754393  
C145     C      0.617850000000     0.927460000000     0.433170000000    -0.00526492 
C146     C      0.582090000000     0.893300000000     0.425520000000    -0.00580226 
C147     C      0.570860000000     0.881260000000     0.389390000000    -0.0757422  
C148     C      0.595220000000     0.904860000000     0.361040000000    -0.0050607  
C149     C      0.651660000000     0.173930000000     0.985620000000    -0.0063969  
C150     C      0.681560000000     0.137280000000     0.999310000000    -0.0742475  
C151     C      0.682570000000     0.128380000000     0.036900000000    -0.00868951 
C152     C      0.653470000000     0.154970000000     0.060310000000    -0.00164753 
C153     C      0.622770000000     0.190900000000     0.046500000000    -0.0768877  
C154     C      0.622570000000     0.200500000000     0.009010000000    -0.00381081 
C155     C      0.880860000000     0.923630000000     0.158540000000    -0.00523746 
C156     C      0.856360000000     0.947350000000     0.186620000000    -0.0752463  
C157     C      0.868240000000     0.936580000000     0.222880000000    -0.00581715 
C158     C      0.903210000000     0.901950000000     0.230910000000    -0.00500118 
C159     C      0.927210000000     0.877720000000     0.202840000000    -0.0756815  
C160     C      0.916100000000     0.889270000000     0.166570000000    -0.00580847 
C161     C      0.613010000000     0.920550000000     0.165670000000    -0.00525212 
C162     C      0.635960000000     0.945770000000     0.137450000000    -0.0753386  
C163     C      0.623520000000     0.935260000000     0.101260000000    -0.00612051 
C164     C      0.589570000000     0.899360000000     0.093440000000    -0.00493797 
C165     C      0.567130000000     0.873670000000     0.121660000000    -0.0758858  
C166     C      0.578750000000     0.884990000000     0.157850000000    -0.00539967 
C167     C      0.682590000000     0.138920000000     0.266940000000    -0.00439861 
C168     C      0.673750000000     0.139480000000     0.229320000000    -0.0768223  
C169     C      0.638130000000     0.170360000000     0.215240000000    -0.00156019 
C170     C      0.611140000000     0.199310000000     0.238500000000    -0.0090335  
C171     C      0.619330000000     0.197990000000     0.276200000000    -0.0741085  
C172     C      0.655640000000     0.167890000000     0.290170000000    -0.00595097 
C173     C      0.626540000000     0.599920000000     0.360290000000    -0.00575173 
C174     C      0.637740000000     0.589500000000     0.323980000000    -0.0759243  
C175     C      0.613490000000     0.614280000000     0.296000000000    -0.00496108 
C176     C      0.579180000000     0.649330000000     0.304160000000    -0.00563016 
C177     C      0.568760000000     0.660510000000     0.340450000000    -0.0755079  
C178     C      0.592500000000     0.635250000000     0.368450000000    -0.00521866 
C179     C      0.867110000000     0.599560000000     0.235590000000    -0.00554412 
C180     C      0.856710000000     0.589030000000     0.272050000000    -0.0755785  
C181     C      0.882420000000     0.613010000000     0.299680000000    -0.00511032 
C182     C      0.917450000000     0.647370000000     0.291010000000    -0.00565922 
C183     C      0.927130000000     0.658640000000     0.254550000000    -0.0754639  
C184     C      0.901870000000     0.634190000000     0.226910000000    -0.00520335 
C185     C      0.653470000000     0.369220000000     0.169860000000    -0.00525228 
C186     C      0.618710000000     0.337570000000     0.184040000000    -0.0740153  
C187     C      0.612270000000     0.335130000000     0.221820000000    -0.00876729 
C188     C      0.639470000000     0.364460000000     0.245000000000    -0.00162105 
C189     C      0.673560000000     0.396810000000     0.230750000000    -0.076676   
C190     C      0.680630000000     0.398580000000     0.193010000000    -0.00476311 
C191     C      0.579160000000     0.638280000000     0.039410000000    -0.00577957 
C192     C      0.568060000000     0.650730000000     0.075360000000    -0.0759685  
C193     C      0.592340000000     0.627440000000     0.104060000000    -0.00503157 
C194     C      0.627540000000     0.592850000000     0.096940000000    -0.00545382 
C195     C      0.639550000000     0.581320000000     0.060990000000    -0.0761361  
C196     C      0.614790000000     0.604090000000     0.032280000000    -0.00496394 
C197     C      0.888670000000     0.604880000000     0.047310000000    -0.00493208 
C198     C      0.864410000000     0.582170000000     0.018350000000    -0.0758856  
C199     C      0.876660000000     0.594370000000     0.982520000000    -0.00571565 
C200     C      0.911610000000     0.629610000000     0.975770000000    -0.00525868 
C201     C      0.935380000000     0.652820000000     0.004730000000    -0.0754837  
C202     C      0.924080000000     0.639660000000     0.040550000000    -0.00562491 
C203     C      0.650390000000     0.358180000000     0.978720000000    -0.00616815 
C204     C      0.681160000000     0.394740000000     0.966050000000    -0.0742792  
C205     C      0.683900000000     0.403570000000     0.928500000000    -0.00807358 
C206     C      0.655530000000     0.377090000000     0.404120000000    -0.00255055 
C207     C      0.623920000000     0.341300000000     0.416890000000    -0.0759955  
C208     C      0.622100000000     0.331680000000     0.454360000000    -0.00481292 
C209     C      0.076440000000     0.393870000000     0.291280000000    -0.00539708 
C210     C      0.064220000000     0.381040000000     0.255490000000    -0.0762025  
C211     C      0.086890000000     0.404880000000     0.226470000000    -0.00479917 
C212     C      0.121660000000     0.440420000000     0.233120000000    -0.00567203 
C213     C      0.134840000000     0.452280000000     0.268910000000    -0.0758046  
C214     C      0.111670000000     0.428940000000     0.297930000000    -0.00502264 
C215     C      0.086600000000     0.131770000000     0.242570000000    -0.00487268 
C216     C      0.063440000000     0.155890000000     0.213740000000    -0.0761631  
C217     C      0.074780000000     0.143370000000     0.177850000000    -0.00537079 
C218     C      0.109590000000     0.108300000000     0.170910000000    -0.00503563 
C219     C      0.133260000000     0.084680000000     0.199740000000    -0.0758806  
C220     C      0.120990000000     0.096270000000     0.235630000000    -0.005816   
C221     C      0.840550000000     0.167060000000     0.295650000000    -0.00556149 
C222     C      0.876990000000     0.198190000000     0.308230000000    -0.0745737  
C223     C      0.885840000000     0.201550000000     0.345800000000    -0.00766335 
C224     C      0.859470000000     0.173480000000     0.370270000000    -0.00285502 
C225     C      0.823770000000     0.141540000000     0.357590000000    -0.0757496  
C226     C      0.814170000000     0.139050000000     0.320110000000    -0.00496946 
C227     C      0.854250000000     0.358490000000     0.099550000000    -0.00434728 
C228     C      0.820700000000     0.392460000000     0.111890000000    -0.0752787  
C229     C      0.813760000000     0.397810000000     0.149460000000    -0.00586743 
C230     C      0.840660000000     0.370540000000     0.174260000000    -0.004702   
C231     C      0.874980000000     0.337330000000     0.161940000000    -0.0751217  
C232     C      0.881100000000     0.331160000000     0.124350000000    -0.00617954 
C233     C      0.117790000000     0.420320000000     0.050290000000    -0.00509431 
C234     C      0.142320000000     0.445040000000     0.022590000000    -0.0752154  
C235     C      0.130910000000     0.434910000000     0.986160000000    -0.00576542 
C236     C      0.096320000000     0.399960000000     0.977590000000    -0.00542561 
C237     C      0.072270000000     0.374770000000     0.005290000000    -0.0749905  
C238     C      0.082950000000     0.385630000000     0.041720000000    -0.00575932 
C239     C      0.097290000000     0.131670000000     0.981170000000    -0.00530721 
C240     C      0.072270000000     0.155830000000     0.953260000000    -0.0756529  
C241     C      0.082380000000     0.144530000000     0.416930000000    -0.00573915 
C242     C      0.117640000000     0.110470000000     0.408650000000    -0.00515703 
C243     C      0.143150000000     0.086820000000     0.436570000000    -0.0755654  
C244     C      0.132280000000     0.097350000000     0.472910000000    -0.00558015 
C245     C      0.882930000000     0.197360000000     0.084410000000    -0.00512141 
C246     C      0.880310000000     0.191200000000     0.046580000000    -0.0765051  
C247     C      0.847330000000     0.157770000000     0.032040000000    -0.00162273 
C248     C      0.818160000000     0.130360000000     0.055010000000    -0.00851473 
C249     C      0.821390000000     0.135920000000     0.092870000000    -0.0742407  
C250     C      0.853710000000     0.170000000000     0.107360000000    -0.00477305 
C251     C      0.854750000000     0.364820000000     0.351170000000    -0.00325678 
C252     C      0.822480000000     0.398150000000     0.366160000000    -0.0753868  
C253     C      0.818800000000     0.401670000000     0.404110000000    -0.00712624 
C254     C      0.847530000000     0.373010000000     0.426680000000    -0.00277937 
C255     C      0.880480000000     0.340360000000     0.411680000000    -0.0756903  
C256     C      0.883510000000     0.336200000000     0.373730000000    -0.00657984 
C257     C      0.036940000000     0.193620000000     0.462140000000     0.350295   
C258     C      0.912960000000     0.312410000000     0.935500000000     0.350005   
C259     C      0.913050000000     0.218200000000     0.522520000000     0.34999    
C260     C      0.037180000000     0.336540000000     0.496140000000     0.350215   
C261     C      0.028780000000     0.194910000000     0.721140000000     0.350934   
C262     C      0.906050000000     0.311240000000     0.688080000000     0.349426   
C263     C      0.907370000000     0.224830000000     0.782170000000     0.348572   
C264     C      0.029220000000     0.341940000000     0.748370000000     0.351017   
C265     C      0.678620000000     0.546790000000     0.553400000000     0.35088    
C266     C      0.794890000000     0.423890000000     0.585840000000     0.349748   
C267     C      0.708040000000     0.425250000000     0.492060000000     0.348891   
C268     C      0.825430000000     0.547170000000     0.525600000000     0.350767   
C269     C      0.675540000000     0.554140000000     0.815220000000     0.350587   
C270     C      0.794470000000     0.430480000000     0.842280000000     0.349959   
C271     C      0.700360000000     0.429780000000     0.754950000000     0.350343   
C272     C      0.818460000000     0.554120000000     0.781310000000     0.350192   
C273     C      0.817800000000     0.982180000000     0.678020000000     0.349561   
C274     C      0.700220000000     0.106620000000     0.705130000000     0.350676   
C275     C      0.793060000000     0.104700000000     0.617230000000     0.349414   
C276     C      0.673860000000     0.981580000000     0.645830000000     0.349189   
C277     C      0.827870000000     0.985010000000     0.942290000000     0.350056   
C278     C      0.709360000000     0.106780000000     0.474230000000     0.348875   
C279     C      0.798190000000     0.109310000000     0.883040000000     0.349594   
C280     C      0.681770000000     0.985170000000     0.912980000000     0.349541   
C281     C      0.465390000000     0.334340000000     0.598210000000     0.350147   
C282     C      0.589740000000     0.216980000000     0.570800000000     0.350374   
C283     C      0.587640000000     0.309210000000     0.659390000000     0.349504   
C284     C      0.464680000000     0.190140000000     0.630070000000     0.350296   
C285     C      0.466710000000     0.344680000000     0.832180000000     0.350747   
C286     C      0.588540000000     0.225810000000     0.801030000000     0.349032   
C287     C      0.591380000000     0.315590000000     0.891580000000     0.349876   
C288     C      0.466880000000     0.199110000000     0.862260000000     0.350198   
C289     C      0.323760000000     0.480130000000     0.565190000000     0.350554   
C290     C      0.204670000000     0.603640000000     0.592310000000     0.349954   
C291     C      0.298660000000     0.604720000000     0.505480000000     0.350351   
C292     C      0.180490000000     0.480210000000     0.531740000000     0.350113   
C293     C      0.173730000000     0.487520000000     0.776060000000     0.350423   
C294     C      0.291030000000     0.609640000000     0.742510000000     0.348607   
C295     C      0.204410000000     0.610620000000     0.835910000000     0.349362   
C296     C      0.320740000000     0.487870000000     0.803420000000     0.350643   
C297     C      0.532680000000     0.834530000000     0.613300000000     0.350238   
C298     C      0.408480000000     0.717990000000     0.642490000000     0.35034    
C299     C      0.410640000000     0.807730000000     0.551700000000     0.349261   
C300     C      0.532710000000     0.689020000000     0.583040000000     0.35063    
C301     C      0.535190000000     0.843170000000     0.881170000000     0.35017    
C302     C      0.412440000000     0.724010000000     0.910400000000     0.349314   
C303     C      0.409610000000     0.816370000000     0.821770000000     0.350392   
C304     C      0.534230000000     0.699100000000     0.849180000000     0.350143   
C305     C      0.317630000000     0.049270000000     0.662490000000     0.350527   
C306     C      0.201230000000     0.925250000000     0.632680000000     0.35022    
C307     C      0.290140000000     0.927630000000     0.724370000000     0.349069   
C308     C      0.171750000000     0.049470000000     0.692250000000     0.350522   
C309     C      0.181650000000     0.052240000000     0.927740000000     0.350073   
C310     C      0.299140000000     0.927790000000     0.454930000000     0.350332   
C311     C      0.206140000000     0.929840000000     0.866590000000     0.349406   
C312     C      0.325270000000     0.052970000000     0.895120000000     0.350244   
C313     C      0.971000000000     0.838770000000     0.470430000000     0.350923   
C314     C      0.093280000000     0.722240000000     0.937470000000     0.349199   
C315     C      0.092840000000     0.808520000000     0.531470000000     0.348619   
C316     C      0.970540000000     0.691680000000     0.497520000000     0.350744   
C317     C      0.962520000000     0.839630000000     0.711490000000     0.350419   
C318     C      0.086090000000     0.720570000000     0.684850000000     0.349851   
C319     C      0.086950000000     0.814760000000     0.771650000000     0.350146   
C320     C      0.962370000000     0.696590000000     0.745310000000     0.350151   
C321     C      0.181380000000     0.903390000000     0.804320000000    -0.00861196 
C322     C      0.178030000000     0.898250000000     0.842200000000    -0.0742844  
C323     C      0.145900000000     0.864130000000     0.856650000000    -0.00482887 
C324     C      0.116930000000     0.836330000000     0.833640000000    -0.00511637 
C325     C      0.119620000000     0.842080000000     0.795780000000    -0.0765037  
C326     C      0.152440000000     0.875530000000     0.781290000000    -0.00172734 
C327     C      0.140350000000     0.860660000000     0.619710000000    -0.00300839 
C328     C      0.175870000000     0.892730000000     0.607180000000    -0.0758811  
C329     C      0.185580000000     0.894970000000     0.569790000000    -0.00490737 
C330     C      0.159440000000     0.866630000000     0.545250000000    -0.00568795 
C331     C      0.123140000000     0.835380000000     0.557660000000    -0.0744561  
C332     C      0.114230000000     0.832230000000     0.595150000000    -0.00758645 
C333     C      0.346090000000     0.878700000000     0.810870000000    -0.00196901 
C334     C      0.376500000000     0.842650000000     0.797280000000    -0.0765702  
C335     C      0.376410000000     0.833180000000     0.759800000000    -0.00443663 
C336     C      0.347390000000     0.860050000000     0.736200000000    -0.00596515 
C337     C      0.317830000000     0.896850000000     0.749660000000    -0.0743032  
C338     C      0.317030000000     0.905570000000     0.787240000000    -0.00878522 
C339     C      0.387780000000     0.834430000000     0.488980000000    -0.00879365 
C340     C      0.379790000000     0.835680000000     0.526620000000    -0.0741747  
C341     C      0.343700000000     0.865900000000     0.540310000000    -0.0058823  
C342     C      0.316800000000     0.895100000000     0.516870000000    -0.00455179 
C343     C      0.325520000000     0.894680000000     0.479310000000    -0.0766996  
C344     C      0.360870000000     0.863650000000     0.465500000000    -0.00192446 
C345     C      0.144830000000     0.675700000000     0.849260000000    -0.00429979 
C346     C      0.178550000000     0.641740000000     0.861810000000    -0.0752431  
C347     C      0.185560000000     0.636060000000     0.899430000000    -0.00598186 
C348     C      0.158660000000     0.663070000000     0.924050000000    -0.00463877 
C349     C      0.124230000000     0.696310000000     0.911510000000    -0.0751543  
C350     C      0.117950000000     0.702740000000     0.873880000000    -0.00626127 
C351     C      0.315270000000     0.630900000000     0.679070000000    -0.00801037 
C352     C      0.318100000000     0.639880000000     0.716590000000    -0.0743269  
C353     C      0.349240000000     0.676190000000     0.729350000000    -0.00585468 
C354     C      0.377780000000     0.702310000000     0.705100000000    -0.00475954 
C355     C      0.375840000000     0.692560000000     0.667670000000    -0.0761353  
C356     C      0.343880000000     0.657020000000     0.654800000000    -0.00253073 
C357     C      0.144180000000     0.669040000000     0.600860000000    -0.00311558 
C358     C      0.176580000000     0.635640000000     0.616040000000    -0.0755058  
C359     C      0.180280000000     0.631700000000     0.654000000000    -0.00712359 
C360     C      0.151520000000     0.660060000000     0.676400000000    -0.0026977  
C361     C      0.118470000000     0.692810000000     0.661200000000    -0.0757297  
C362     C      0.115370000000     0.697340000000     0.623250000000    -0.00661422 
C363     C      0.387620000000     0.698480000000     0.472730000000    -0.00890328 
C364     C      0.381220000000     0.695910000000     0.934900000000    -0.0740784  
C365     C      0.346200000000     0.664500000000     0.920540000000    -0.00529501 
C366     C      0.318740000000     0.635500000000     0.943580000000    -0.00464907 
C367     C      0.325720000000     0.637420000000     0.481380000000    -0.0767372  
C368     C      0.360090000000     0.669520000000     0.495800000000    -0.00145952 
C369     C      0.408110000000     0.406570000000     0.853550000000    -0.00502627 
C370     C      0.431360000000     0.383220000000     0.824700000000    -0.0758369  
C371     C      0.419270000000     0.395880000000     0.788820000000    -0.00586072 
C372     C      0.383630000000     0.430310000000     0.781920000000    -0.00497867 
C373     C      0.359870000000     0.453130000000     0.810780000000    -0.0759281  
C374     C      0.372900000000     0.441410000000     0.846650000000    -0.00547917 
C375     C      0.421670000000     0.148470000000     0.906900000000    -0.00542277 
C376     C      0.432310000000     0.160180000000     0.870680000000    -0.0757253  
C377     C      0.408760000000     0.135130000000     0.842510000000    -0.00500843 
C378     C      0.374680000000     0.099480000000     0.850410000000    -0.00588803 
C379     C      0.363220000000     0.088580000000     0.886630000000    -0.075609   
C380     C      0.387270000000     0.113150000000     0.914800000000    -0.00512393 
C381     C      0.407950000000     0.398320000000     0.617850000000    -0.0051604  
C382     C      0.430810000000     0.373150000000     0.589700000000    -0.0754412  
C383     C      0.419440000000     0.384640000000     0.553480000000    -0.00562669 
C384     C      0.385060000000     0.419900000000     0.545560000000    -0.00500578 
C385     C      0.361690000000     0.444580000000     0.573710000000    -0.075684   
C386     C      0.373850000000     0.433860000000     0.609930000000    -0.00578618 
C387     C      0.418750000000     0.139830000000     0.674580000000    -0.00585368 
C388     C      0.428890000000     0.152290000000     0.638410000000    -0.0756415  
C389     C      0.403300000000     0.129440000000     0.610180000000    -0.00512389 
C390     C      0.367740000000     0.095240000000     0.617980000000    -0.00535468 
C391     C      0.356790000000     0.083620000000     0.654160000000    -0.0759469  
C392     C      0.382850000000     0.105970000000     0.682390000000    -0.00498071 
C393     C      0.879600000000     0.937750000000     0.985410000000    -0.00618148 
C394     C      0.866450000000     0.949630000000     0.949580000000    -0.0756831  
C395     C      0.889310000000     0.926110000000     0.920640000000    -0.00506115 
C396     C      0.924140000000     0.890840000000     0.927380000000    -0.00553044 
C397     C      0.936330000000     0.878010000000     0.463200000000    -0.07602    
C398     C      0.914000000000     0.902040000000     0.492160000000    -0.00497494 
C399     C      0.630630000000     0.939360000000     0.868680000000    -0.00566786 
C400     C      0.642680000000     0.950550000000     0.904820000000    -0.0755447  
C401     C      0.617860000000     0.927460000000     0.933170000000    -0.00520558 
C402     C      0.582090000000     0.893300000000     0.925520000000    -0.00589072 
C403     C      0.570870000000     0.881260000000     0.889380000000    -0.0756957  
C404     C      0.595220000000     0.904860000000     0.861040000000    -0.00504757 
C405     C      0.651660000000     0.173930000000     0.485620000000    -0.00605852 
C406     C      0.681560000000     0.137280000000     0.499310000000    -0.0740878  
C407     C      0.682570000000     0.128380000000     0.536900000000    -0.00887716 
C408     C      0.653470000000     0.154970000000     0.560310000000    -0.00172361 
C409     C      0.622770000000     0.190900000000     0.546500000000    -0.0767027  
C410     C      0.622580000000     0.200500000000     0.509010000000    -0.00436986 
C411     C      0.880860000000     0.923640000000     0.658540000000    -0.00527678 
C412     C      0.856360000000     0.947350000000     0.686620000000    -0.0752376  
C413     C      0.868240000000     0.936580000000     0.722880000000    -0.00583163 
C414     C      0.903210000000     0.901950000000     0.730910000000    -0.00498046 
C415     C      0.927210000000     0.877730000000     0.702840000000    -0.0757175  
C416     C      0.916100000000     0.889270000000     0.666580000000    -0.00573962 
C417     C      0.613010000000     0.920550000000     0.665670000000    -0.00525995 
C418     C      0.635960000000     0.945770000000     0.637450000000    -0.0753056  
C419     C      0.623520000000     0.935260000000     0.601270000000    -0.00607924 
C420     C      0.589570000000     0.899360000000     0.593440000000    -0.00500081 
C421     C      0.567130000000     0.873670000000     0.621660000000    -0.0758191  
C422     C      0.578740000000     0.884990000000     0.657850000000    -0.00542972 
C423     C      0.682590000000     0.138920000000     0.766940000000    -0.00439685 
C424     C      0.673740000000     0.139480000000     0.729320000000    -0.0768393  
C425     C      0.638130000000     0.170360000000     0.715240000000    -0.00152905 
C426     C      0.611140000000     0.199310000000     0.738500000000    -0.00906998 
C427     C      0.619330000000     0.197990000000     0.776200000000    -0.0740881  
C428     C      0.655640000000     0.167890000000     0.790170000000    -0.00595447 
C429     C      0.626540000000     0.599920000000     0.860290000000    -0.0057743  
C430     C      0.637730000000     0.589500000000     0.823990000000    -0.0758564  
C431     C      0.613490000000     0.614280000000     0.796000000000    -0.00500482 
C432     C      0.579180000000     0.649320000000     0.804160000000    -0.00563598 
C433     C      0.568760000000     0.660510000000     0.840460000000    -0.0755068  
C434     C      0.592500000000     0.635240000000     0.868450000000    -0.00520061 
C435     C      0.867110000000     0.599560000000     0.735590000000    -0.00559677 
C436     C      0.856710000000     0.589030000000     0.772050000000    -0.0755542  
C437     C      0.882420000000     0.613000000000     0.799680000000    -0.00513325 
C438     C      0.917450000000     0.647370000000     0.791010000000    -0.00562303 
C439     C      0.927130000000     0.658640000000     0.754550000000    -0.0755484  
C440     C      0.901870000000     0.634190000000     0.726920000000    -0.00510867 
C441     C      0.653470000000     0.369220000000     0.669860000000    -0.00518699 
C442     C      0.618710000000     0.337570000000     0.684030000000    -0.074111   
C443     C      0.612270000000     0.335130000000     0.721820000000    -0.00876202 
C444     C      0.639470000000     0.364460000000     0.745000000000    -0.00162266 
C445     C      0.673560000000     0.396810000000     0.730750000000    -0.0766548  
C446     C      0.680630000000     0.398580000000     0.693010000000    -0.00480598 
C447     C      0.579160000000     0.638280000000     0.539410000000    -0.00581029 
C448     C      0.568060000000     0.650730000000     0.575360000000    -0.075959   
C449     C      0.592340000000     0.627440000000     0.604060000000    -0.00505199 
C450     C      0.627540000000     0.592850000000     0.596940000000    -0.00543124 
C451     C      0.639550000000     0.581320000000     0.560990000000    -0.0761834  
C452     C      0.614790000000     0.604090000000     0.532280000000    -0.00496178 
C453     C      0.888670000000     0.604880000000     0.547300000000    -0.00483528 
C454     C      0.864400000000     0.582170000000     0.518360000000    -0.0762004  
C455     C      0.876660000000     0.594370000000     0.482520000000    -0.00553845 
C456     C      0.911600000000     0.629620000000     0.475770000000    -0.00494502 
C457     C      0.935380000000     0.652820000000     0.504730000000    -0.0760143  
C458     C      0.924070000000     0.639660000000     0.540550000000    -0.00553003 
C459     C      0.650390000000     0.358180000000     0.478720000000    -0.00577129 
C460     C      0.681160000000     0.394740000000     0.466060000000    -0.07445    
C461     C      0.683900000000     0.403570000000     0.428500000000    -0.00799403 
C462     C      0.655530000000     0.377090000000     0.904120000000    -0.00253531 
C463     C      0.623920000000     0.341300000000     0.916890000000    -0.0759888  
C464     C      0.622100000000     0.331680000000     0.954360000000    -0.00468662 
C465     C      0.076440000000     0.393870000000     0.791280000000    -0.00543827 
C466     C      0.064220000000     0.381040000000     0.755490000000    -0.0761884  
C467     C      0.086890000000     0.404880000000     0.726470000000    -0.00480798 
C468     C      0.121660000000     0.440420000000     0.733120000000    -0.00566356 
C469     C      0.134840000000     0.452280000000     0.768910000000    -0.0758139  
C470     C      0.111670000000     0.428940000000     0.797930000000    -0.00500067 
C471     C      0.086600000000     0.131770000000     0.742570000000    -0.00486721 
C472     C      0.063440000000     0.155890000000     0.713740000000    -0.0761717  
C473     C      0.074780000000     0.143370000000     0.677850000000    -0.00536298 
C474     C      0.109580000000     0.108300000000     0.670910000000    -0.00505653 
C475     C      0.133260000000     0.084680000000     0.699740000000    -0.0758608  
C476     C      0.120990000000     0.096260000000     0.735630000000    -0.00582432 
C477     C      0.840550000000     0.167060000000     0.795660000000    -0.00554834 
C478     C      0.876990000000     0.198190000000     0.808240000000    -0.0745072  
C479     C      0.885840000000     0.201550000000     0.845800000000    -0.00766122 
C480     C      0.859470000000     0.173480000000     0.870270000000    -0.00289775 
C481     C      0.823770000000     0.141540000000     0.857590000000    -0.0756508  
C482     C      0.814170000000     0.139050000000     0.820110000000    -0.00500393 
C483     C      0.854250000000     0.358490000000     0.599550000000    -0.00434981 
C484     C      0.820690000000     0.392460000000     0.611890000000    -0.0753104  
C485     C      0.813760000000     0.397810000000     0.649460000000    -0.0058545  
C486     C      0.840660000000     0.370540000000     0.674260000000    -0.00469411 
C487     C      0.874980000000     0.337330000000     0.661940000000    -0.0751554  
C488     C      0.881100000000     0.331160000000     0.624350000000    -0.00617005 
C489     C      0.117800000000     0.420320000000     0.550290000000    -0.00513474 
C490     C      0.142320000000     0.445040000000     0.522590000000    -0.075409   
C491     C      0.130910000000     0.434910000000     0.486160000000    -0.00561445 
C492     C      0.096330000000     0.399960000000     0.477590000000    -0.00509008 
C493     C      0.072270000000     0.374770000000     0.505290000000    -0.0755593  
C494     C      0.082950000000     0.385630000000     0.541720000000    -0.00559939 
C495     C      0.097290000000     0.131670000000     0.481170000000    -0.00504823 
C496     C      0.072270000000     0.155820000000     0.453260000000    -0.0756559  
C497     C      0.082380000000     0.144530000000     0.916930000000    -0.00571877 
C498     C      0.117640000000     0.110470000000     0.908650000000    -0.0052393  
C499     C      0.143140000000     0.086820000000     0.936570000000    -0.0753772  
C500     C      0.132270000000     0.097350000000     0.972910000000    -0.00558256 
C501     C      0.882930000000     0.197360000000     0.584410000000    -0.00509857 
C502     C      0.880320000000     0.191200000000     0.546580000000    -0.0765507  
C503     C      0.847330000000     0.157780000000     0.532040000000    -0.00162938 
C504     C      0.818160000000     0.130360000000     0.555010000000    -0.00855539 
C505     C      0.821390000000     0.135920000000     0.592870000000    -0.0741988  
C506     C      0.853710000000     0.170000000000     0.607360000000    -0.00480646 
C507     C      0.854750000000     0.364820000000     0.851170000000    -0.00332174 
C508     C      0.822480000000     0.398150000000     0.866160000000    -0.0753662  
C509     C      0.818800000000     0.401660000000     0.904110000000    -0.00714758 
C510     C      0.847520000000     0.373000000000     0.926670000000    -0.00274362 
C511     C      0.880480000000     0.340360000000     0.911670000000    -0.0757582  
C512     C      0.883510000000     0.336200000000     0.873740000000    -0.00646467 
H1       H      0.205440000000     0.929770000000     0.292490000000     0.0614936  
H2       H      0.142500000000     0.859450000000     0.385770000000     0.0529017  
H3       H      0.091610000000     0.811210000000     0.345560000000     0.0547303  
H4       H      0.155240000000     0.880760000000     0.252180000000     0.0507692  
H5       H      0.132060000000     0.858170000000     0.148390000000     0.0520055  
H6       H      0.212550000000     0.919550000000     0.059360000000     0.0526843  
H7       H      0.167070000000     0.869840000000     0.016500000000     0.0523367  
H8       H      0.086050000000     0.808960000000     0.105460000000     0.0580726  
H9       H      0.345390000000     0.886790000000     0.339660000000     0.0515818  
H10      H      0.399610000000     0.805770000000     0.248570000000     0.051984   
H11      H      0.348740000000     0.852520000000     0.207340000000     0.0524455  
H12      H      0.295050000000     0.934090000000     0.298290000000     0.0616191  
H13      H      0.415750000000     0.811920000000     0.977750000000     0.0618945  
H14      H      0.336750000000     0.867630000000     0.069220000000     0.0527184  
H15      H      0.289960000000     0.918810000000     0.028260000000     0.0521719  
H16      H      0.368380000000     0.862550000000     0.936650000000     0.0512897  
H17      H      0.138560000000     0.680800000000     0.320410000000     0.0524272  
H18      H      0.210850000000     0.609770000000     0.409900000000     0.0541035  
H19      H      0.164230000000     0.657250000000     0.452910000000     0.0525474  
H20      H      0.091270000000     0.727630000000     0.363430000000     0.0549323  
H21      H      0.292110000000     0.602690000000     0.168510000000     0.059153   
H22      H      0.352210000000     0.683880000000     0.258140000000     0.0523823  
H23      H      0.402260000000     0.729320000000     0.215790000000     0.0525517  
H24      H      0.341620000000     0.648700000000     0.126080000000     0.0518409  
H25      H      0.140500000000     0.672800000000     0.071650000000     0.0521984  
H26      H      0.204500000000     0.605890000000     0.166440000000     0.0590056  
H27      H      0.154650000000     0.655740000000     0.205590000000     0.0519196  
H28      H      0.089870000000     0.721870000000     0.110780000000     0.0579195  
H29      H      0.414740000000     0.721930000000     0.984460000000     0.0622331  
H30      H      0.340530000000     0.661700000000     0.391450000000     0.0529811  
H31      H      0.292860000000     0.610770000000     0.431710000000     0.0539238  
H32      H      0.366300000000     0.671720000000     0.024860000000     0.0510331  
H33      H      0.416830000000     0.397650000000     0.381500000000     0.0498681  
H34      H      0.436590000000     0.378450000000     0.266070000000     0.0510257  
H35      H      0.374450000000     0.438790000000     0.253970000000     0.0492266  
H36      H      0.355210000000     0.458430000000     0.369420000000     0.051488   
H37      H      0.439300000000     0.167160000000     0.429160000000     0.0519534  
H38      H      0.416400000000     0.143300000000     0.314310000000     0.0493104  
H39      H      0.356690000000     0.081110000000     0.328160000000     0.0515059  
H40      H      0.379250000000     0.105380000000     0.942990000000     0.0501462  
H41      H      0.416150000000     0.390330000000     0.146050000000     0.0496903  
H42      H      0.436520000000     0.365860000000     0.031240000000     0.0518073  
H43      H      0.376500000000     0.427520000000     0.017360000000     0.0502875  
H44      H      0.356410000000     0.452320000000     0.132160000000     0.0512241  
H45      H      0.437900000000     0.156900000000     0.196880000000     0.0513459  
H46      H      0.410460000000     0.138250000000     0.082020000000     0.0500991  
H47      H      0.348270000000     0.078550000000     0.095680000000     0.0520205  
H48      H      0.375280000000     0.097560000000     0.210560000000     0.0492896  
H49      H      0.862560000000     0.955270000000     0.008240000000     0.0511044  
H50      H      0.880000000000     0.934660000000     0.392720000000     0.0497257  
H51      H      0.940770000000     0.872940000000     0.404540000000     0.0513576  
H52      H      0.922840000000     0.893000000000     0.020070000000     0.0493354  
H53      H      0.649150000000     0.956620000000     0.346300000000     0.0517243  
H54      H      0.626290000000     0.935530000000     0.461300000000     0.0492879  
H55      H      0.563900000000     0.875670000000     0.447900000000     0.0513004  
H56      H      0.587190000000     0.896390000000     0.332910000000     0.0500339  
H57      H      0.650110000000     0.181590000000     0.456750000000     0.0526022  
H58      H      0.704760000000     0.099920000000     0.048110000000     0.0618255  
H59      H      0.654380000000     0.146750000000     0.089120000000     0.0516469  
H60      H      0.599130000000     0.227820000000     0.997610000000     0.0517878  
H61      H      0.872550000000     0.931350000000     0.130310000000     0.0497294  
H62      H      0.849980000000     0.954320000000     0.245060000000     0.0516598  
H63      H      0.911150000000     0.893880000000     0.259140000000     0.0501551  
H64      H      0.934040000000     0.871180000000     0.144400000000     0.0512806  
H65      H      0.621810000000     0.928000000000     0.193840000000     0.0501318  
H66      H      0.640650000000     0.954120000000     0.078980000000     0.0512674  
H67      H      0.581170000000     0.891510000000     0.065260000000     0.0493083  
H68      H      0.561990000000     0.865800000000     0.180140000000     0.0518434  
H69      H      0.709590000000     0.115280000000     0.278550000000     0.0522909  
H70      H      0.630470000000     0.171540000000     0.186330000000     0.0514318  
H71      H      0.582970000000     0.221680000000     0.227070000000     0.062266   
H72      H      0.662740000000     0.166080000000     0.319130000000     0.0527735  
H73      H      0.644660000000     0.581380000000     0.382400000000     0.0513643  
H74      H      0.621300000000     0.606890000000     0.267740000000     0.050145   
H75      H      0.561410000000     0.668190000000     0.282040000000     0.0518824  
H76      H      0.585050000000     0.643010000000     0.396700000000     0.0495848  
H77      H      0.847870000000     0.581610000000     0.213740000000     0.0518397  
H78      H      0.875250000000     0.605490000000     0.328050000000     0.0498118  
H79      H      0.936380000000     0.665640000000     0.312860000000     0.0517497  
H80      H      0.908700000000     0.642060000000     0.198550000000     0.0499458  
H81      H      0.659150000000     0.371930000000     0.140810000000     0.0529168  
H82      H      0.585330000000     0.311500000000     0.233410000000     0.0619024  
H83      H      0.633240000000     0.362340000000     0.274010000000     0.0508788  
H84      H      0.706340000000     0.423460000000     0.181270000000     0.0540171  
H85      H      0.561040000000     0.655670000000     0.016760000000     0.0511956  
H86      H      0.584410000000     0.636220000000     0.132060000000     0.0498141  
H87      H      0.646020000000     0.575870000000     0.119590000000     0.0516043  
H88      H      0.623180000000     0.595750000000     0.004270000000     0.0491426  
H89      H      0.880060000000     0.596040000000     0.075220000000     0.0494015  
H90      H      0.858540000000     0.577440000000     0.959690000000     0.0513013  
H91      H      0.919750000000     0.638940000000     0.947860000000     0.049372   
H92      H      0.941820000000     0.656970000000     0.063390000000     0.0513768  
H93      H      0.647520000000     0.350570000000     0.007520000000     0.0525294  
H94      H      0.706830000000     0.431940000000     0.918010000000     0.0593503  
H95      H      0.657690000000     0.385310000000     0.375370000000     0.0518472  
H96      H      0.597880000000     0.304510000000     0.464970000000     0.0524895  
H97      H      0.059550000000     0.376080000000     0.314170000000     0.0512775  
H98      H      0.078020000000     0.395830000000     0.198580000000     0.0493181  
H99      H      0.138940000000     0.457820000000     0.210240000000     0.0512372  
H100     H      0.121010000000     0.437510000000     0.325820000000     0.0494638  
H101     H      0.078430000000     0.140580000000     0.270530000000     0.0491325  
H102     H      0.057490000000     0.161350000000     0.155100000000     0.0515008  
H103     H      0.118220000000     0.099970000000     0.142950000000     0.049793   
H104     H      0.138670000000     0.078650000000     0.258370000000     0.0512556  
H105     H      0.832940000000     0.163680000000     0.266840000000     0.0523568  
H106     H      0.914130000000     0.224740000000     0.356240000000     0.0584523  
H107     H      0.867700000000     0.176130000000     0.399030000000     0.0520895  
H108     H      0.787120000000     0.114520000000     0.309560000000     0.0527454  
H109     H      0.860420000000     0.353610000000     0.070740000000     0.0523234  
H110     H      0.788530000000     0.424060000000     0.159760000000     0.0540925  
H111     H      0.835200000000     0.376140000000     0.203080000000     0.052386   
H112     H      0.907670000000     0.306260000000     0.114070000000     0.0547196  
H113     H      0.125770000000     0.427510000000     0.078640000000     0.0498911  
H114     H      0.149230000000     0.453430000000     0.964250000000     0.0517332  
H115     H      0.088700000000     0.392430000000     0.949240000000     0.0499895  
H116     H      0.064940000000     0.366800000000     0.063630000000     0.0517876  
H117     H      0.090140000000     0.139570000000     0.009450000000     0.0504055  
H118     H      0.063650000000     0.162580000000     0.394870000000     0.0513947  
H119     H      0.125170000000     0.102930000000     0.380380000000     0.0496756  
H120     H      0.151320000000     0.079650000000     0.994970000000     0.051897   
H121     H      0.908340000000     0.222500000000     0.096370000000     0.0549278  
H122     H      0.844570000000     0.152220000000     0.002950000000     0.0509641  
H123     H      0.794010000000     0.103960000000     0.043160000000     0.0616254  
H124     H      0.857040000000     0.175000000000     0.136470000000     0.052972   
H125     H      0.858390000000     0.361370000000     0.321990000000     0.0520896  
H126     H      0.794630000000     0.427380000000     0.416400000000     0.0587719  
H127     H      0.844460000000     0.377010000000     0.955860000000     0.0517293  
H128     H      0.908940000000     0.311750000000     0.361430000000     0.0575886  
H129     H      0.205440000000     0.929770000000     0.792490000000     0.061494   
H130     H      0.142500000000     0.859450000000     0.885770000000     0.0528884  
H131     H      0.091610000000     0.811210000000     0.845560000000     0.0547325  
H132     H      0.155240000000     0.880760000000     0.752180000000     0.0507633  
H133     H      0.132060000000     0.858170000000     0.648390000000     0.0520065  
H134     H      0.212550000000     0.919550000000     0.559360000000     0.052648   
H135     H      0.167080000000     0.869840000000     0.516500000000     0.0522788  
H136     H      0.086040000000     0.808960000000     0.605460000000     0.0580575  
H137     H      0.345390000000     0.886790000000     0.839660000000     0.0515956  
H138     H      0.399610000000     0.805770000000     0.748570000000     0.0519924  
H139     H      0.348740000000     0.852510000000     0.707340000000     0.0524328  
H140     H      0.295050000000     0.934090000000     0.798290000000     0.0616106  
H141     H      0.415750000000     0.811920000000     0.477750000000     0.0617804  
H142     H      0.336750000000     0.867630000000     0.569230000000     0.0526113  
H143     H      0.289960000000     0.918810000000     0.528260000000     0.0522494  
H144     H      0.368380000000     0.862550000000     0.436650000000     0.051388   
H145     H      0.138560000000     0.680800000000     0.820410000000     0.0524468  
H146     H      0.210850000000     0.609770000000     0.909890000000     0.0541371  
H147     H      0.164240000000     0.657260000000     0.952910000000     0.0524677  
H148     H      0.091270000000     0.727640000000     0.863430000000     0.0549103  
H149     H      0.292100000000     0.602700000000     0.668510000000     0.0591458  
H150     H      0.352210000000     0.683880000000     0.758140000000     0.052406   
H151     H      0.402250000000     0.729310000000     0.715800000000     0.0525458  
H152     H      0.341620000000     0.648700000000     0.626080000000     0.0518349  
H153     H      0.140500000000     0.672800000000     0.571650000000     0.0521691  
H154     H      0.204500000000     0.605890000000     0.666440000000     0.0589945  
H155     H      0.154650000000     0.655740000000     0.705600000000     0.0519077  
H156     H      0.089870000000     0.721870000000     0.610780000000     0.0579034  
H157     H      0.414750000000     0.721920000000     0.484470000000     0.0623029  
H158     H      0.340530000000     0.661700000000     0.891450000000     0.0529821  
H159     H      0.292870000000     0.610770000000     0.931710000000     0.0538881  
H160     H      0.366300000000     0.671720000000     0.524860000000     0.0508741  
H161     H      0.416830000000     0.397650000000     0.881500000000     0.0498529  
H162     H      0.436590000000     0.378460000000     0.766070000000     0.0510385  
H163     H      0.374450000000     0.438790000000     0.753970000000     0.0492053  
H164     H      0.355210000000     0.458430000000     0.869420000000     0.051451   
H165     H      0.439290000000     0.167170000000     0.929160000000     0.0519143  
H166     H      0.416400000000     0.143300000000     0.814310000000     0.0493088  
H167     H      0.356690000000     0.081110000000     0.828160000000     0.0515095  
H168     H      0.379250000000     0.105380000000     0.443000000000     0.0501506  
H169     H      0.416150000000     0.390330000000     0.646050000000     0.0496917  
H170     H      0.436520000000     0.365860000000     0.531240000000     0.0517706  
H171     H      0.376500000000     0.427520000000     0.517360000000     0.0502394  
H172     H      0.356410000000     0.452320000000     0.632160000000     0.0512161  
H173     H      0.437900000000     0.156900000000     0.696880000000     0.0513716  
H174     H      0.410450000000     0.138250000000     0.582030000000     0.0501085  
H175     H      0.348260000000     0.078550000000     0.595680000000     0.051944   
H176     H      0.375280000000     0.097560000000     0.710560000000     0.0492458  
H177     H      0.862560000000     0.955270000000     0.508240000000     0.0509005  
H178     H      0.880000000000     0.934660000000     0.892720000000     0.0497175  
H179     H      0.940770000000     0.872940000000     0.904540000000     0.0513594  
H180     H      0.922850000000     0.893010000000     0.520070000000     0.0491831  
H181     H      0.649150000000     0.956620000000     0.846300000000     0.0517307  
H182     H      0.626290000000     0.935530000000     0.961300000000     0.0492253  
H183     H      0.563910000000     0.875670000000     0.947900000000     0.0512815  
H184     H      0.587190000000     0.896390000000     0.832910000000     0.0500314  
H185     H      0.650100000000     0.181580000000     0.956750000000     0.0526708  
H186     H      0.704760000000     0.099920000000     0.548110000000     0.0618259  
H187     H      0.654380000000     0.146750000000     0.589110000000     0.0516626  
H188     H      0.599130000000     0.227820000000     0.497600000000     0.0520563  
H189     H      0.872540000000     0.931350000000     0.630310000000     0.0497263  
H190     H      0.849980000000     0.954320000000     0.745060000000     0.0516618  
H191     H      0.911150000000     0.893880000000     0.759140000000     0.0501502  
H192     H      0.934040000000     0.871180000000     0.644400000000     0.0512501  
H193     H      0.621810000000     0.928010000000     0.693840000000     0.0501385  
H194     H      0.640650000000     0.954120000000     0.578980000000     0.0512192  
H195     H      0.581170000000     0.891510000000     0.565260000000     0.0492862  
H196     H      0.561980000000     0.865800000000     0.680140000000     0.0518515  
H197     H      0.709590000000     0.115280000000     0.778550000000     0.0522889  
H198     H      0.630470000000     0.171540000000     0.686330000000     0.051423   
H199     H      0.582980000000     0.221680000000     0.727070000000     0.0622775  
H200     H      0.662740000000     0.166080000000     0.819130000000     0.0527726  
H201     H      0.644660000000     0.581380000000     0.882400000000     0.051345   
H202     H      0.621300000000     0.606890000000     0.767740000000     0.0501535  
H203     H      0.561410000000     0.668180000000     0.782040000000     0.0518829  
H204     H      0.585040000000     0.643010000000     0.896700000000     0.0495545  
H205     H      0.847870000000     0.581610000000     0.713740000000     0.0518513  
H206     H      0.875250000000     0.605490000000     0.828050000000     0.0498112  
H207     H      0.936380000000     0.665640000000     0.812860000000     0.051736   
H208     H      0.908700000000     0.642060000000     0.698550000000     0.0499113  
H209     H      0.659150000000     0.371920000000     0.640810000000     0.0529018  
H210     H      0.585340000000     0.311500000000     0.733410000000     0.0619042  
H211     H      0.633230000000     0.362340000000     0.774010000000     0.0508813  
H212     H      0.706340000000     0.423450000000     0.681270000000     0.0540301  
H213     H      0.561040000000     0.655670000000     0.516760000000     0.0511512  
H214     H      0.584410000000     0.636220000000     0.632060000000     0.0498175  
H215     H      0.646020000000     0.575860000000     0.619590000000     0.0515971  
H216     H      0.623180000000     0.595750000000     0.504270000000     0.0490872  
H217     H      0.880060000000     0.596040000000     0.575220000000     0.0493651  
H218     H      0.858530000000     0.577450000000     0.459690000000     0.0513075  
H219     H      0.919740000000     0.638940000000     0.447860000000     0.0493141  
H220     H      0.941820000000     0.656970000000     0.563390000000     0.0513329  
H221     H      0.647510000000     0.350570000000     0.507520000000     0.0523015  
H222     H      0.706830000000     0.431940000000     0.418010000000     0.0593451  
H223     H      0.657690000000     0.385310000000     0.875370000000     0.0518406  
H224     H      0.597880000000     0.304500000000     0.964970000000     0.0524139  
H225     H      0.059550000000     0.376080000000     0.814160000000     0.0512927  
H226     H      0.078020000000     0.395830000000     0.698580000000     0.0493162  
H227     H      0.138940000000     0.457820000000     0.710240000000     0.0512347  
H228     H      0.121010000000     0.437510000000     0.825820000000     0.0494554  
H229     H      0.078430000000     0.140580000000     0.770530000000     0.0491313  
H230     H      0.057490000000     0.161350000000     0.655100000000     0.0514878  
H231     H      0.118220000000     0.099970000000     0.642950000000     0.0497819  
H232     H      0.138670000000     0.078650000000     0.758370000000     0.0512635  
H233     H      0.832940000000     0.163680000000     0.766840000000     0.0523501  
H234     H      0.914130000000     0.224740000000     0.856240000000     0.0584521  
H235     H      0.867700000000     0.176130000000     0.899030000000     0.052091   
H236     H      0.787110000000     0.114520000000     0.809560000000     0.0527555  
H237     H      0.860420000000     0.353610000000     0.570740000000     0.0522934  
H238     H      0.788530000000     0.424060000000     0.659760000000     0.0540902  
H239     H      0.835200000000     0.376140000000     0.703080000000     0.0523846  
H240     H      0.907670000000     0.306260000000     0.614070000000     0.0547109  
H241     H      0.125770000000     0.427510000000     0.578640000000     0.0498922  
H242     H      0.149230000000     0.453430000000     0.464250000000     0.0517469  
H243     H      0.088700000000     0.392420000000     0.449240000000     0.0499265  
H244     H      0.064940000000     0.366800000000     0.563630000000     0.0517262  
H245     H      0.090140000000     0.139560000000     0.509450000000     0.0501854  
H246     H      0.063650000000     0.162580000000     0.894870000000     0.0513867  
H247     H      0.125170000000     0.102930000000     0.880380000000     0.0496985  
H248     H      0.151320000000     0.079650000000     0.494970000000     0.0519603  
H249     H      0.908340000000     0.222500000000     0.596370000000     0.0549193  
H250     H      0.844570000000     0.152220000000     0.502950000000     0.0508758  
H251     H      0.794010000000     0.103960000000     0.543160000000     0.0615882  
H252     H      0.857040000000     0.175000000000     0.636470000000     0.0529809  
H253     H      0.858390000000     0.361370000000     0.821990000000     0.0521014  
H254     H      0.794630000000     0.427380000000     0.916400000000     0.0587545  
H255     H      0.844460000000     0.377020000000     0.455860000000     0.0517878  
H256     H      0.908940000000     0.311750000000     0.861420000000     0.0575473  
In1      In     0.975110000000     0.264960000000     0.978950000000     2.43036    
In2      In     0.967600000000     0.268290000000     0.235000000000     2.4122     
In3      In     0.751910000000     0.485630000000     0.039170000000     2.41262    
In4      In     0.746930000000     0.492260000000     0.298640000000     2.43039    
In5      In     0.745830000000     0.043910000000     0.161580000000     2.42986    
In6      In     0.754750000000     0.046690000000     0.428410000000     2.41967    
In7      In     0.526920000000     0.262130000000     0.114540000000     2.42724    
In8      In     0.528400000000     0.271720000000     0.346440000000     2.42102    
In9      In     0.252110000000     0.542250000000     0.048920000000     2.43175    
In10     In     0.247270000000     0.549260000000     0.289460000000     2.41282    
In11     In     0.471160000000     0.761760000000     0.097470000000     2.42025    
In12     In     0.472890000000     0.771040000000     0.365720000000     2.4273     
In13     In     0.244700000000     0.987980000000     0.178170000000     2.41625    
In14     In     0.253420000000     0.990790000000     0.411050000000     2.42692    
In15     In     0.032250000000     0.765120000000     0.984140000000     2.41149    
In16     In     0.024460000000     0.767940000000     0.228060000000     2.43119    
In17     In     0.975110000000     0.264960000000     0.478950000000     2.43065    
In18     In     0.967590000000     0.268290000000     0.735000000000     2.4122     
In19     In     0.751910000000     0.485630000000     0.539170000000     2.41266    
In20     In     0.746930000000     0.492260000000     0.798640000000     2.43039    
In21     In     0.745820000000     0.043910000000     0.661580000000     2.42977    
In22     In     0.754740000000     0.046690000000     0.928410000000     2.41972    
In23     In     0.526920000000     0.262130000000     0.614540000000     2.42722    
In24     In     0.528400000000     0.271720000000     0.846440000000     2.42112    
In25     In     0.252110000000     0.542250000000     0.548920000000     2.43151    
In26     In     0.247270000000     0.549260000000     0.789460000000     2.41289    
In27     In     0.471160000000     0.761750000000     0.597470000000     2.4206     
In28     In     0.472890000000     0.771040000000     0.865720000000     2.42737    
In29     In     0.244690000000     0.987980000000     0.678170000000     2.41649    
In30     In     0.253420000000     0.990790000000     0.911050000000     2.42681    
In31     In     0.032250000000     0.765120000000     0.484130000000     2.41187    
In32     In     0.024460000000     0.767940000000     0.728060000000     2.43098    
O1       O      0.030800000000     0.321910000000     0.964060000000    -0.496272   
O2       O      0.012070000000     0.315170000000     0.019740000000    -0.477965   
O3       O      0.941090000000     0.280460000000     0.423620000000    -0.482301   
O4       O      0.011020000000     0.214170000000     0.438450000000    -0.479527   
O5       O      0.941310000000     0.250550000000     0.034120000000    -0.481616   
O6       O      0.031360000000     0.208850000000     0.994080000000    -0.497428   
O7       O      0.916010000000     0.320000000000     0.969240000000    -0.49735    
O8       O      0.915990000000     0.209660000000     0.988920000000    -0.497112   
O9       O      0.024130000000     0.323180000000     0.217430000000    -0.494545   
O10      O      0.003080000000     0.323710000000     0.272770000000    -0.476775   
O11      O      0.934790000000     0.278500000000     0.178510000000    -0.478094   
O12      O      0.002630000000     0.213710000000     0.196800000000    -0.475837   
O13      O      0.937420000000     0.256600000000     0.291920000000    -0.478343   
O14      O      0.023940000000     0.212980000000     0.252270000000    -0.493776   
O15      O      0.907750000000     0.321690000000     0.221460000000    -0.492827   
O16      O      0.907080000000     0.215720000000     0.248560000000    -0.493501   
O17      O      0.807120000000     0.542120000000     0.056630000000    -0.494768   
O18      O      0.806840000000     0.520990000000     0.001230000000    -0.476895   
O19      O      0.762040000000     0.452470000000     0.095450000000    -0.478116   
O20      O      0.698190000000     0.521220000000     0.077710000000    -0.475729   
O21      O      0.739580000000     0.455380000000     0.982230000000    -0.478742   
O22      O      0.695900000000     0.541440000000     0.022100000000    -0.493285   
O23      O      0.805550000000     0.425910000000     0.052560000000    -0.492826   
O24      O      0.699340000000     0.425010000000     0.025690000000    -0.493598   
O25      O      0.804270000000     0.547800000000     0.313450000000    -0.496169   
O26      O      0.796650000000     0.529090000000     0.257750000000    -0.4782     
O27      O      0.762780000000     0.458920000000     0.354110000000    -0.482349   
O28      O      0.696120000000     0.528380000000     0.338980000000    -0.479919   
O29      O      0.732970000000     0.457720000000     0.243550000000    -0.481617   
O30      O      0.690750000000     0.548370000000     0.283340000000    -0.497564   
O31      O      0.801750000000     0.433040000000     0.308520000000    -0.497359   
O32      O      0.691400000000     0.433250000000     0.288440000000    -0.496706   
O33      O      0.690960000000     0.986720000000     0.177410000000    -0.497642   
O34      O      0.692780000000     0.008280000000     0.121980000000    -0.478916   
O35      O      0.733370000000     0.079240000000     0.216500000000    -0.481699   
O36      O      0.797060000000     0.007150000000     0.201900000000    -0.476784   
O37      O      0.761460000000     0.075540000000     0.105710000000    -0.48316    
O38      O      0.802270000000     0.988470000000     0.146110000000    -0.495885   
O39      O      0.690310000000     0.102550000000     0.171740000000    -0.496652   
O40      O      0.800230000000     0.103570000000     0.151120000000    -0.49652    
O41      O      0.698320000000     0.990990000000     0.444640000000    -0.494256   
O42      O      0.701980000000     0.010440000000     0.388890000000    -0.47496    
O43      O      0.739960000000     0.076260000000     0.985060000000    -0.481367   
O44      O      0.810160000000     0.011600000000     0.966570000000    -0.477645   
O45      O      0.764560000000     0.081550000000     0.372910000000    -0.479541   
O46      O      0.808960000000     0.989850000000     0.411280000000    -0.496346   
O47      O      0.702410000000     0.107490000000     0.440310000000    -0.494335   
O48      O      0.809590000000     0.105870000000     0.416240000000    -0.493892   
O49      O      0.469330000000     0.207500000000     0.098600000000    -0.497388   
O50      O      0.491840000000     0.208790000000     0.153890000000    -0.479571   
O51      O      0.562390000000     0.250270000000     0.059650000000    -0.481159   
O52      O      0.489780000000     0.313100000000     0.074250000000    -0.476857   
O53      O      0.557970000000     0.278080000000     0.170670000000    -0.482951   
O54      O      0.472110000000     0.319150000000     0.130130000000    -0.495239   
O55      O      0.585540000000     0.206640000000     0.104070000000    -0.496121   
O56      O      0.587090000000     0.315990000000     0.125470000000    -0.495709   
O57      O      0.472590000000     0.215080000000     0.330500000000    -0.494503   
O58      O      0.492250000000     0.219730000000     0.386240000000    -0.476132   
O59      O      0.558080000000     0.256330000000     0.289980000000    -0.481854   
O60      O      0.492930000000     0.326380000000     0.307940000000    -0.4785     
O61      O      0.563700000000     0.282070000000     0.401840000000    -0.47977    
O62      O      0.471920000000     0.326430000000     0.363330000000    -0.496366   
O63      O      0.589080000000     0.219110000000     0.334960000000    -0.494486   
O64      O      0.587610000000     0.326720000000     0.358380000000    -0.494465   
O65      O      0.195700000000     0.486030000000     0.063790000000    -0.49643    
O66      O      0.201280000000     0.505900000000     0.008170000000    -0.477937   
O67      O      0.236490000000     0.575170000000     0.104330000000    -0.482754   
O68      O      0.303970000000     0.505920000000     0.089040000000    -0.479729   
O69      O      0.265870000000     0.576940000000     0.993880000000    -0.482286   
O70      O      0.307620000000     0.486010000000     0.033400000000    -0.497621   
O71      O      0.197290000000     0.601350000000     0.058480000000    -0.497514   
O72      O      0.307680000000     0.601180000000     0.039050000000    -0.497121   
O73      O      0.302460000000     0.493210000000     0.272240000000    -0.493364   
O74      O      0.302070000000     0.513600000000     0.327790000000    -0.475189   
O75      O      0.259210000000     0.579730000000     0.232560000000    -0.479092   
O76      O      0.191370000000     0.514240000000     0.251690000000    -0.476727   
O77      O      0.237370000000     0.582020000000     0.345730000000    -0.478301   
O78      O      0.192960000000     0.492180000000     0.306970000000    -0.494802   
O79      O      0.299950000000     0.609750000000     0.276200000000    -0.493872   
O80      O      0.193660000000     0.608850000000     0.302540000000    -0.493043   
O81      O      0.528240000000     0.707130000000     0.114200000000    -0.49636    
O82      O      0.505800000000     0.707310000000     0.058920000000    -0.478491   
O83      O      0.436380000000     0.751390000000     0.152780000000    -0.479923   
O84      O      0.508190000000     0.813340000000     0.137340000000    -0.475961   
O85      O      0.441040000000     0.777260000000     0.040860000000    -0.481441   
O86      O      0.526140000000     0.819010000000     0.081500000000    -0.49429    
O87      O      0.411960000000     0.706840000000     0.109350000000    -0.494389   
O88      O      0.410340000000     0.814340000000     0.085610000000    -0.494441   
O89      O      0.528200000000     0.714020000000     0.381140000000    -0.495452   
O90      O      0.509230000000     0.720440000000     0.325330000000    -0.477101   
O91      O      0.442300000000     0.755030000000     0.421780000000    -0.482684   
O92      O      0.508950000000     0.823950000000     0.405120000000    -0.479336   
O93      O      0.436730000000     0.783030000000     0.310770000000    -0.481113   
O94      O      0.529670000000     0.826260000000     0.349650000000    -0.497131   
O95      O      0.412780000000     0.717250000000     0.376510000000    -0.49612    
O96      O      0.414240000000     0.826660000000     0.355030000000    -0.496028   
O97      O      0.189860000000     0.044750000000     0.161160000000    -0.495455   
O98      O      0.190170000000     0.022860000000     0.216480000000    -0.477698   
O99      O      0.234780000000     0.953050000000     0.122730000000    -0.479413   
O100     O      0.296290000000     0.024710000000     0.138430000000    -0.475197   
O101     O      0.259870000000     0.958360000000     0.234970000000    -0.48078    
O102     O      0.302200000000     0.042910000000     0.194280000000    -0.493428   
O103     O      0.189810000000     0.928790000000     0.165740000000    -0.493639   
O104     O      0.296820000000     0.926920000000     0.190490000000    -0.49426    
O105     O      0.309140000000     0.047410000000     0.426800000000    -0.497042   
O106     O      0.305400000000     0.026830000000     0.371270000000    -0.479282   
O107     O      0.266120000000     0.955200000000     0.966050000000    -0.481427   
O108     O      0.203270000000     0.027430000000     0.951540000000    -0.477169   
O109     O      0.237550000000     0.959120000000     0.355170000000    -0.482651   
O110     O      0.196200000000     0.045970000000     0.395740000000    -0.495259   
O111     O      0.308940000000     0.932040000000     0.421610000000    -0.496222   
O112     O      0.199070000000     0.931050000000     0.400420000000    -0.496337   
O113     O      0.974880000000     0.710840000000     0.966640000000    -0.494472   
O114     O      0.997550000000     0.709340000000     0.021830000000    -0.476369   
O115     O      0.064440000000     0.755010000000     0.427740000000    -0.478461   
O116     O      0.976470000000     0.820490000000     0.501530000000    -0.493557   
O117     O      0.062950000000     0.776670000000     0.041150000000    -0.478328   
O118     O      0.996520000000     0.820020000000     0.945990000000    -0.475481   
O119     O      0.091920000000     0.711710000000     0.970860000000    -0.492855   
O120     O      0.092860000000     0.817680000000     0.997840000000    -0.493852   
O121     O      0.967870000000     0.711680000000     0.213260000000    -0.496716   
O122     O      0.988430000000     0.717330000000     0.268820000000    -0.478534   
O123     O      0.057870000000     0.752600000000     0.172830000000    -0.482454   
O124     O      0.987690000000     0.819030000000     0.187660000000    -0.479324   
O125     O      0.058870000000     0.782380000000     0.283270000000    -0.481751   
O126     O      0.968880000000     0.824220000000     0.243400000000    -0.49729    
O127     O      0.083350000000     0.712830000000     0.218580000000    -0.497516   
O128     O      0.083720000000     0.823210000000     0.238000000000    -0.497013   
O129     O      0.030810000000     0.321900000000     0.464060000000    -0.496398   
O130     O      0.012070000000     0.315170000000     0.519740000000    -0.478313   
O131     O      0.941080000000     0.280460000000     0.923620000000    -0.482305   
O132     O      0.011020000000     0.214170000000     0.938450000000    -0.479508   
O133     O      0.941310000000     0.250550000000     0.534120000000    -0.48162    
O134     O      0.031360000000     0.208840000000     0.494080000000    -0.497309   
O135     O      0.916010000000     0.320000000000     0.469240000000    -0.497303   
O136     O      0.915990000000     0.209660000000     0.488920000000    -0.496916   
O137     O      0.024130000000     0.323180000000     0.717430000000    -0.494476   
O138     O      0.003080000000     0.323710000000     0.772770000000    -0.476725   
O139     O      0.934780000000     0.278500000000     0.678510000000    -0.478172   
O140     O      0.002630000000     0.213710000000     0.696800000000    -0.475804   
O141     O      0.937430000000     0.256600000000     0.791920000000    -0.478331   
O142     O      0.023940000000     0.212980000000     0.752270000000    -0.493693   
O143     O      0.907750000000     0.321690000000     0.721460000000    -0.492942   
O144     O      0.907080000000     0.215720000000     0.748560000000    -0.493538   
O145     O      0.807120000000     0.542120000000     0.556630000000    -0.494723   
O146     O      0.806840000000     0.520990000000     0.501230000000    -0.477075   
O147     O      0.762040000000     0.452470000000     0.595450000000    -0.478177   
O148     O      0.698190000000     0.521220000000     0.577710000000    -0.475734   
O149     O      0.739580000000     0.455380000000     0.482230000000    -0.478697   
O150     O      0.695900000000     0.541430000000     0.522100000000    -0.493415   
O151     O      0.805550000000     0.425920000000     0.552560000000    -0.492977   
O152     O      0.699340000000     0.425010000000     0.525690000000    -0.493902   
O153     O      0.804270000000     0.547800000000     0.813450000000    -0.496173   
O154     O      0.796650000000     0.529090000000     0.757750000000    -0.478197   
O155     O      0.762780000000     0.458920000000     0.854110000000    -0.482355   
O156     O      0.696120000000     0.528380000000     0.838980000000    -0.479915   
O157     O      0.732970000000     0.457720000000     0.743550000000    -0.481614   
O158     O      0.690750000000     0.548370000000     0.783340000000    -0.497552   
O159     O      0.801750000000     0.433040000000     0.808520000000    -0.497356   
O160     O      0.691400000000     0.433250000000     0.788440000000    -0.496703   
O161     O      0.690960000000     0.986720000000     0.677420000000    -0.497499   
O162     O      0.692780000000     0.008280000000     0.621980000000    -0.478875   
O163     O      0.733370000000     0.079240000000     0.716500000000    -0.48172    
O164     O      0.797060000000     0.007150000000     0.701900000000    -0.476711   
O165     O      0.761460000000     0.075540000000     0.605710000000    -0.483133   
O166     O      0.802270000000     0.988470000000     0.646110000000    -0.495819   
O167     O      0.690320000000     0.102550000000     0.671740000000    -0.496828   
O168     O      0.800240000000     0.103570000000     0.651120000000    -0.496328   
O169     O      0.698330000000     0.990990000000     0.944640000000    -0.494455   
O170     O      0.701980000000     0.010440000000     0.888900000000    -0.475235   
O171     O      0.739960000000     0.076260000000     0.485060000000    -0.48132    
O172     O      0.810160000000     0.011600000000     0.466570000000    -0.477649   
O173     O      0.764550000000     0.081550000000     0.872900000000    -0.479283   
O174     O      0.808960000000     0.989850000000     0.911280000000    -0.496286   
O175     O      0.702400000000     0.107480000000     0.940310000000    -0.494415   
O176     O      0.809580000000     0.105880000000     0.916240000000    -0.493816   
O177     O      0.469320000000     0.207500000000     0.598600000000    -0.497334   
O178     O      0.491840000000     0.208790000000     0.653890000000    -0.479562   
O179     O      0.562390000000     0.250270000000     0.559650000000    -0.481232   
O180     O      0.489780000000     0.313100000000     0.574250000000    -0.476884   
O181     O      0.557970000000     0.278080000000     0.670670000000    -0.48297    
O182     O      0.472110000000     0.319150000000     0.630130000000    -0.495238   
O183     O      0.585540000000     0.206640000000     0.604070000000    -0.496121   
O184     O      0.587090000000     0.315980000000     0.625470000000    -0.495814   
O185     O      0.472590000000     0.215080000000     0.830500000000    -0.494595   
O186     O      0.492250000000     0.219730000000     0.886240000000    -0.476107   
O187     O      0.558080000000     0.256330000000     0.789980000000    -0.481911   
O188     O      0.492930000000     0.326380000000     0.807940000000    -0.478499   
O189     O      0.563700000000     0.282070000000     0.901840000000    -0.479731   
O190     O      0.471920000000     0.326430000000     0.863330000000    -0.496392   
O191     O      0.589070000000     0.219110000000     0.834960000000    -0.494593   
O192     O      0.587610000000     0.326720000000     0.858370000000    -0.494354   
O193     O      0.195700000000     0.486030000000     0.563790000000    -0.496427   
O194     O      0.201280000000     0.505900000000     0.508170000000    -0.478049   
O195     O      0.236490000000     0.575170000000     0.604330000000    -0.482804   
O196     O      0.303970000000     0.505920000000     0.589040000000    -0.479759   
O197     O      0.265870000000     0.576950000000     0.493880000000    -0.481961   
O198     O      0.307620000000     0.486010000000     0.533400000000    -0.497574   
O199     O      0.197290000000     0.601350000000     0.558490000000    -0.497673   
O200     O      0.307680000000     0.601180000000     0.539050000000    -0.497144   
O201     O      0.302460000000     0.493210000000     0.772250000000    -0.493468   
O202     O      0.302060000000     0.513600000000     0.827790000000    -0.475354   
O203     O      0.259210000000     0.579730000000     0.732560000000    -0.479094   
O204     O      0.191370000000     0.514240000000     0.751690000000    -0.476736   
O205     O      0.237370000000     0.582020000000     0.845730000000    -0.478274   
O206     O      0.192960000000     0.492180000000     0.806970000000    -0.4948     
O207     O      0.299950000000     0.609750000000     0.776200000000    -0.493876   
O208     O      0.193650000000     0.608850000000     0.802540000000    -0.492939   
O209     O      0.528230000000     0.707130000000     0.614200000000    -0.496514   
O210     O      0.505790000000     0.707310000000     0.558920000000    -0.478592   
O211     O      0.436380000000     0.751390000000     0.652780000000    -0.479942   
O212     O      0.508180000000     0.813340000000     0.637340000000    -0.475952   
O213     O      0.441040000000     0.777260000000     0.540870000000    -0.481759   
O214     O      0.526140000000     0.819010000000     0.581500000000    -0.494278   
O215     O      0.411960000000     0.706840000000     0.609350000000    -0.49448    
O216     O      0.410340000000     0.814340000000     0.585610000000    -0.494476   
O217     O      0.528200000000     0.714020000000     0.881140000000    -0.495493   
O218     O      0.509230000000     0.720440000000     0.825330000000    -0.477157   
O219     O      0.442300000000     0.755030000000     0.921780000000    -0.482705   
O220     O      0.508950000000     0.823940000000     0.905120000000    -0.479377   
O221     O      0.436730000000     0.783030000000     0.810770000000    -0.481116   
O222     O      0.529670000000     0.826260000000     0.849650000000    -0.497109   
O223     O      0.412780000000     0.717250000000     0.876510000000    -0.496132   
O224     O      0.414240000000     0.826660000000     0.855030000000    -0.496032   
O225     O      0.189860000000     0.044750000000     0.661160000000    -0.495636   
O226     O      0.190170000000     0.022860000000     0.716480000000    -0.47774    
O227     O      0.234780000000     0.953050000000     0.622730000000    -0.479444   
O228     O      0.296290000000     0.024710000000     0.638440000000    -0.475513   
O229     O      0.259870000000     0.958360000000     0.734970000000    -0.480738   
O230     O      0.302200000000     0.042910000000     0.694270000000    -0.493551   
O231     O      0.189810000000     0.928790000000     0.665740000000    -0.493744   
O232     O      0.296820000000     0.926920000000     0.690490000000    -0.494193   
O233     O      0.309140000000     0.047410000000     0.926800000000    -0.497054   
O234     O      0.305400000000     0.026830000000     0.871270000000    -0.479257   
O235     O      0.266110000000     0.955210000000     0.466050000000    -0.481194   
O236     O      0.203270000000     0.027440000000     0.451540000000    -0.477186   
O237     O      0.237550000000     0.959120000000     0.855170000000    -0.482642   
O238     O      0.196200000000     0.045970000000     0.895730000000    -0.495042   
O239     O      0.308940000000     0.932040000000     0.921610000000    -0.496341   
O240     O      0.199070000000     0.931050000000     0.900420000000    -0.49634    
O241     O      0.974870000000     0.710840000000     0.466640000000    -0.494584   
O242     O      0.997550000000     0.709340000000     0.521830000000    -0.476613   
O243     O      0.064440000000     0.755020000000     0.927740000000    -0.478181   
O244     O      0.976470000000     0.820490000000     0.001530000000    -0.493192   
O245     O      0.062950000000     0.776660000000     0.541150000000    -0.478166   
O246     O      0.996520000000     0.820020000000     0.445990000000    -0.475662   
O247     O      0.091920000000     0.711710000000     0.470860000000    -0.492887   
O248     O      0.092870000000     0.817670000000     0.497840000000    -0.493616   
O249     O      0.967870000000     0.711680000000     0.713260000000    -0.496696   
O250     O      0.988430000000     0.717330000000     0.768820000000    -0.478479   
O251     O      0.057870000000     0.752600000000     0.672830000000    -0.482455   
O252     O      0.987680000000     0.819040000000     0.687660000000    -0.479324   
O253     O      0.058870000000     0.782380000000     0.783270000000    -0.481734   
O254     O      0.968880000000     0.824230000000     0.743400000000    -0.497278   
O255     O      0.083350000000     0.712830000000     0.718580000000    -0.497495   
O256     O      0.083720000000     0.823210000000     0.738000000000    -0.496999   


