data_structure

_audit_creation_method RASPA-1.0
_audit_creation_date 2023-5-22
_audit_author_name 'Poobodin Mano'

_cell_length_a    48.6579
_cell_length_b    48.6529
_cell_length_c    48.6492
_cell_angle_alpha 90.1036
_cell_angle_beta  89.95
_cell_angle_gamma 89.8446
_cell_volume      115169

_symmetry_cell_setting          triclinic
_symmetry_space_group_name_Hall 'P 1'
_symmetry_space_group_name_H-M  'P 1'
_symmetry_Int_Tables_number     1

_symmetry_equiv_pos_as_xyz 'x,y,z'

loop_
_atom_site_label
_atom_site_type_symbol
_atom_site_fract_x
_atom_site_fract_y
_atom_site_fract_z
_atom_site_charge
C1       C      0.065690000000     0.334220000000     0.899280000000     0.350611   
C2       C      0.165740000000     0.335090000000     0.899910000000     0.350934   
C3       C      0.118020000000     0.335300000000     0.969120000000     0.346943   
C4       C      0.113620000000     0.265180000000     0.899030000000     0.347102   
C5       C      0.135630000000     0.375100000000     0.179680000000     0.350817   
C6       C      0.136150000000     0.374450000000     0.079600000000     0.351041   
C7       C      0.135180000000     0.444240000000     0.132010000000     0.346848   
C8       C      0.205360000000     0.374140000000     0.127200000000     0.346843   
C9       C      0.166560000000     0.834930000000     0.109360000000     0.35076    
C10      C      0.066470000000     0.834230000000     0.109930000000     0.350838   
C11      C      0.118900000000     0.835160000000     0.040240000000     0.346889   
C12      C      0.114270000000     0.765140000000     0.110290000000     0.347009   
C13      C      0.095970000000     0.554810000000     0.150020000000     0.3507     
C14      C      0.095530000000     0.654900000000     0.149370000000     0.350549   
C15      C      0.026310000000     0.607350000000     0.149010000000     0.347044   
C16      C      0.096470000000     0.602660000000     0.219060000000     0.347319   
C17      C      0.095570000000     0.304990000000     0.360060000000     0.350805   
C18      C      0.096310000000     0.405050000000     0.359230000000     0.350953   
C19      C      0.096540000000     0.357140000000     0.290160000000     0.34693    
C20      C      0.026440000000     0.352860000000     0.360210000000     0.346846   
C21      C      0.416000000000     0.334570000000     0.109380000000     0.350854   
C22      C      0.315910000000     0.335060000000     0.108850000000     0.350575   
C23      C      0.363580000000     0.335480000000     0.039700000000     0.346762   
C24      C      0.368450000000     0.265410000000     0.109780000000     0.346765   
C25      C      0.815800000000     0.624570000000     0.108890000000     0.350912   
C26      C      0.915890000000     0.625200000000     0.109670000000     0.350977   
C27      C      0.863600000000     0.624150000000     0.039850000000     0.346745   
C28      C      0.868130000000     0.694320000000     0.109980000000     0.346561   
C29      C      0.635760000000     0.084420000000     0.829290000000     0.350779   
C30      C      0.636360000000     0.084910000000     0.929390000000     0.351075   
C31      C      0.635460000000     0.015200000000     0.876840000000     0.346966   
C32      C      0.705460000000     0.085220000000     0.881670000000     0.346992   
C33      C      0.596380000000     0.055140000000     0.649790000000     0.350659   
C34      C      0.595610000000     0.155190000000     0.649090000000     0.350826   
C35      C      0.526530000000     0.107520000000     0.648950000000     0.347089   
C36      C      0.596630000000     0.102920000000     0.718940000000     0.346577   
C37      C      0.416020000000     0.125310000000     0.609860000000     0.350678   
C38      C      0.315950000000     0.124530000000     0.609320000000     0.350488   
C39      C      0.368100000000     0.194390000000     0.610210000000     0.346563   
C40      C      0.363670000000     0.124310000000     0.540090000000     0.347187   
C41      C      0.096390000000     0.904990000000     0.650210000000     0.350612   
C42      C      0.095650000000     0.804900000000     0.649540000000     0.350866   
C43      C      0.096670000000     0.857310000000     0.719330000000     0.346588   
C44      C      0.026640000000     0.852760000000     0.649200000000     0.347067   
C45      C      0.636830000000     0.874860000000     0.579070000000     0.350383   
C46      C      0.636010000000     0.875450000000     0.679140000000     0.350857   
C47      C      0.705850000000     0.874410000000     0.626900000000     0.346819   
C48      C      0.635710000000     0.944640000000     0.631560000000     0.346943   
C49      C      0.595680000000     0.804730000000     0.859190000000     0.350975   
C50      C      0.596340000000     0.904840000000     0.858640000000     0.350802   
C51      C      0.596730000000     0.857110000000     0.789480000000     0.346966   
C52      C      0.526640000000     0.852600000000     0.859660000000     0.346893   
C53      C      0.886030000000     0.904690000000     0.149980000000     0.350842   
C54      C      0.886680000000     0.804670000000     0.149240000000     0.35076    
C55      C      0.955910000000     0.852250000000     0.149030000000     0.347051   
C56      C      0.885840000000     0.857060000000     0.219110000000     0.34687    
C57      C      0.595730000000     0.655140000000     0.359250000000     0.351065   
C58      C      0.596210000000     0.555090000000     0.358650000000     0.350712   
C59      C      0.526490000000     0.607630000000     0.359630000000     0.346822   
C60      C      0.596560000000     0.602700000000     0.289470000000     0.346864   
C61      C      0.636310000000     0.374760000000     0.429190000000     0.351171   
C62      C      0.635640000000     0.375500000000     0.329110000000     0.350741   
C63      C      0.635330000000     0.444600000000     0.376920000000     0.346747   
C64      C      0.705470000000     0.374460000000     0.381430000000     0.346711   
C65      C      0.635730000000     0.584420000000     0.178970000000     0.35095    
C66      C      0.636330000000     0.585020000000     0.078860000000     0.351137   
C67      C      0.705430000000     0.585330000000     0.126610000000     0.346953   
C68      C      0.635340000000     0.515320000000     0.131150000000     0.346967   
C69      C      0.595410000000     0.304990000000     0.149020000000     0.350781   
C70      C      0.596070000000     0.405090000000     0.149470000000     0.350779   
C71      C      0.526320000000     0.352880000000     0.148570000000     0.346945   
C72      C      0.596370000000     0.357540000000     0.218680000000     0.347388   
C73      C      0.846770000000     0.875360000000     0.329640000000     0.350967   
C74      C      0.846140000000     0.874660000000     0.429740000000     0.350711   
C75      C      0.847100000000     0.944450000000     0.377520000000     0.346734   
C76      C      0.777050000000     0.874430000000     0.381950000000     0.346957   
C77      C      0.386860000000     0.805020000000     0.359580000000     0.350823   
C78      C      0.386240000000     0.905080000000     0.358930000000     0.350793   
C79      C      0.456060000000     0.852620000000     0.359790000000     0.346973   
C80      C      0.385900000000     0.857280000000     0.289820000000     0.347303   
C81      C      0.566550000000     0.834670000000     0.398860000000     0.350663   
C82      C      0.666650000000     0.835220000000     0.399530000000     0.350889   
C83      C      0.618870000000     0.835630000000     0.468590000000     0.347233   
C84      C      0.614300000000     0.765510000000     0.398440000000     0.34709    
C85      C      0.386260000000     0.304880000000     0.649210000000     0.350756   
C86      C      0.385690000000     0.404970000000     0.649640000000     0.350783   
C87      C      0.385190000000     0.357400000000     0.718840000000     0.347017   
C88      C      0.455370000000     0.352510000000     0.648690000000     0.347035   
C89      C      0.565830000000     0.334490000000     0.609290000000     0.350836   
C90      C      0.665900000000     0.335140000000     0.608700000000     0.35068    
C91      C      0.613700000000     0.265440000000     0.609670000000     0.346796   
C92      C      0.618250000000     0.335480000000     0.539540000000     0.347284   
C93      C      0.165900000000     0.624660000000     0.609020000000     0.350899   
C94      C      0.065840000000     0.625160000000     0.609730000000     0.350494   
C95      C      0.113420000000     0.694370000000     0.610140000000     0.346688   
C96      C      0.118220000000     0.624270000000     0.539940000000     0.34719    
C97      C      0.135900000000     0.584460000000     0.329350000000     0.350747   
C98      C      0.136630000000     0.585100000000     0.429440000000     0.350817   
C99      C      0.135670000000     0.515400000000     0.377050000000     0.346936   
C100     C      0.205680000000     0.585540000000     0.381570000000     0.346984   
C101     C      0.416000000000     0.625680000000     0.398940000000     0.350739   
C102     C      0.315920000000     0.624970000000     0.399590000000     0.350736   
C103     C      0.363600000000     0.624680000000     0.468700000000     0.346851   
C104     C      0.368210000000     0.694760000000     0.398680000000     0.346831   
C105     C      0.346250000000     0.584520000000     0.679110000000     0.351161   
C106     C      0.345600000000     0.585330000000     0.579030000000     0.350761   
C107     C      0.346610000000     0.515440000000     0.631250000000     0.347066   
C108     C      0.276460000000     0.585540000000     0.626840000000     0.347302   
C109     C      0.136730000000     0.874410000000     0.929850000000     0.350718   
C110     C      0.135940000000     0.875150000000     0.829760000000     0.351001   
C111     C      0.135540000000     0.944230000000     0.877630000000     0.346671   
C112     C      0.205780000000     0.874150000000     0.881980000000     0.346768   
C113     C      0.345750000000     0.375430000000     0.829300000000     0.35104    
C114     C      0.345100000000     0.374730000000     0.929400000000     0.35096    
C115     C      0.346090000000     0.444450000000     0.877120000000     0.346997   
C116     C      0.276000000000     0.374420000000     0.881720000000     0.346957   
C117     C      0.416350000000     0.834390000000     0.899070000000     0.350798   
C118     C      0.316300000000     0.835010000000     0.899900000000     0.350636   
C119     C      0.368720000000     0.765250000000     0.898810000000     0.346918   
C120     C      0.364080000000     0.835450000000     0.968950000000     0.347069   
C121     C      0.386420000000     0.654690000000     0.859440000000     0.350937   
C122     C      0.385510000000     0.554630000000     0.858770000000     0.350763   
C123     C      0.385390000000     0.602290000000     0.789600000000     0.347069   
C124     C      0.455400000000     0.606740000000     0.859690000000     0.346918   
C125     C      0.815730000000     0.124340000000     0.900130000000     0.350771   
C126     C      0.915820000000     0.124970000000     0.899610000000     0.350601   
C127     C      0.867940000000     0.194030000000     0.899130000000     0.346826   
C128     C      0.863380000000     0.124060000000     0.969310000000     0.346695   
C129     C      0.665810000000     0.624510000000     0.899470000000     0.351016   
C130     C      0.565730000000     0.625140000000     0.898800000000     0.350928   
C131     C      0.618030000000     0.624220000000     0.968530000000     0.347165   
C132     C      0.613390000000     0.694280000000     0.898450000000     0.346799   
C133     C      0.816350000000     0.834970000000     0.609030000000     0.350976   
C134     C      0.916410000000     0.834270000000     0.609880000000     0.350707   
C135     C      0.868740000000     0.765150000000     0.610050000000     0.346967   
C136     C      0.864250000000     0.835290000000     0.540040000000     0.347151   
C137     C      0.886450000000     0.654680000000     0.649250000000     0.350958   
C138     C      0.885660000000     0.554580000000     0.649900000000     0.350697   
C139     C      0.955490000000     0.606780000000     0.648900000000     0.346997   
C140     C      0.885410000000     0.602330000000     0.719010000000     0.34714    
C141     C      0.846190000000     0.584090000000     0.829390000000     0.350526   
C142     C      0.845450000000     0.584820000000     0.929440000000     0.350441   
C143     C      0.776340000000     0.585160000000     0.881650000000     0.346789   
C144     C      0.846420000000     0.514940000000     0.877060000000     0.346782   
C145     C      0.886120000000     0.304250000000     0.859700000000     0.35082    
C146     C      0.885530000000     0.404340000000     0.858970000000     0.350875   
C147     C      0.955230000000     0.351870000000     0.859950000000     0.346703   
C148     C      0.885110000000     0.356510000000     0.789890000000     0.346938   
C149     C      0.815940000000     0.335260000000     0.399660000000     0.350815   
C150     C      0.915990000000     0.334680000000     0.399210000000     0.351079   
C151     C      0.863500000000     0.335570000000     0.468930000000     0.346888   
C152     C      0.868450000000     0.265470000000     0.398820000000     0.347264   
C153     C      0.845880000000     0.375050000000     0.679590000000     0.350342   
C154     C      0.845260000000     0.374640000000     0.579490000000     0.350848   
C155     C      0.776170000000     0.374270000000     0.627210000000     0.346884   
C156     C      0.846260000000     0.444260000000     0.632010000000     0.346988   
C157     C      0.345860000000     0.874800000000     0.079410000000     0.350567   
C158     C      0.346570000000     0.875500000000     0.179500000000     0.350792   
C159     C      0.346720000000     0.944570000000     0.131830000000     0.347039   
C160     C      0.276800000000     0.874390000000     0.127290000000     0.346706   
C161     C      0.886690000000     0.154880000000     0.359770000000     0.350699   
C162     C      0.886200000000     0.054760000000     0.359330000000     0.350714   
C163     C      0.885720000000     0.102310000000     0.290160000000     0.346989   
C164     C      0.955810000000     0.107090000000     0.360300000000     0.346877   
C165     C      0.095430000000     0.154700000000     0.860000000000     0.350585   
C166     C      0.096170000000     0.054640000000     0.859470000000     0.350959   
C167     C      0.026340000000     0.107000000000     0.860400000000     0.346957   
C168     C      0.096510000000     0.102240000000     0.790290000000     0.347204   
C169     C      0.166110000000     0.124900000000     0.400340000000     0.350655   
C170     C      0.066050000000     0.125490000000     0.399670000000     0.350694   
C171     C      0.118340000000     0.124470000000     0.469440000000     0.347108   
C172     C      0.113610000000     0.194620000000     0.399410000000     0.347143   
C173     C      0.135890000000     0.084260000000     0.679820000000     0.350901   
C174     C      0.136570000000     0.085070000000     0.579720000000     0.350707   
C175     C      0.205660000000     0.085270000000     0.627430000000     0.346894   
C176     C      0.135610000000     0.015250000000     0.631940000000     0.347102   
C177     C      0.846300000000     0.084240000000     0.179810000000     0.351064   
C178     C      0.845480000000     0.084890000000     0.079720000000     0.350687   
C179     C      0.846630000000     0.015130000000     0.131990000000     0.347036   
C180     C      0.776440000000     0.085280000000     0.127540000000     0.34666    
C181     C      0.666010000000     0.124540000000     0.109160000000     0.350789   
C182     C      0.565970000000     0.125260000000     0.109710000000     0.350652   
C183     C      0.613570000000     0.194390000000     0.109980000000     0.347088   
C184     C      0.618350000000     0.124190000000     0.039920000000     0.347068   
C185     C      0.346330000000     0.084740000000     0.329450000000     0.350694   
C186     C      0.345730000000     0.085250000000     0.429550000000     0.350837   
C187     C      0.276610000000     0.085700000000     0.381920000000     0.34695    
C188     C      0.346830000000     0.015570000000     0.377040000000     0.346939   
C189     C      0.386450000000     0.155050000000     0.149160000000     0.350535   
C190     C      0.385820000000     0.054970000000     0.149900000000     0.351039   
C191     C      0.455570000000     0.107210000000     0.148900000000     0.346936   
C192     C      0.385470000000     0.102840000000     0.219010000000     0.346866   
C193     C      0.383720000000     0.098780000000     0.296860000000    -0.00454181 
C194     C      0.356150000000     0.091650000000     0.301580000000    -0.0757164  
C195     C      0.338170000000     0.089580000000     0.279120000000    -0.00472245 
C196     C      0.347650000000     0.093920000000     0.252410000000    -0.00649665 
C197     C      0.375390000000     0.100190000000     0.247540000000    -0.0730441  
C198     C      0.393300000000     0.102890000000     0.270020000000    -0.00628966 
C199     C      0.533400000000     0.111280000000     0.147150000000    -0.00455057 
C200     C      0.538110000000     0.118390000000     0.119550000000    -0.0757417  
C201     C      0.515650000000     0.120450000000     0.101570000000    -0.00472851 
C202     C      0.488950000000     0.116110000000     0.111060000000    -0.00650452 
C203     C      0.484090000000     0.109870000000     0.138820000000    -0.0730353  
C204     C      0.506570000000     0.107180000000     0.156740000000    -0.00632439 
C205     C      0.743020000000     0.123140000000     0.118530000000    -0.00651934 
C206     C      0.747910000000     0.095390000000     0.124810000000    -0.0729145  
C207     C      0.725440000000     0.077490000000     0.127450000000    -0.00639546 
C208     C      0.698610000000     0.087100000000     0.123270000000    -0.00443151 
C209     C      0.693880000000     0.114680000000     0.116120000000    -0.0757902  
C210     C      0.716320000000     0.132650000000     0.114110000000    -0.00471482 
C211     C      0.118250000000     0.132200000000     0.520490000000    -0.00630389 
C212     C      0.121060000000     0.114330000000     0.497920000000    -0.0731517  
C213     C      0.127480000000     0.086580000000     0.502670000000    -0.00648257 
C214     C      0.131860000000     0.077040000000     0.529330000000    -0.00470001 
C215     C      0.129670000000     0.094960000000     0.551880000000    -0.0757616  
C216     C      0.122390000000     0.122550000000     0.547290000000    -0.004553   
C217     C      0.198770000000     0.087520000000     0.386010000000    -0.00452505 
C218     C      0.194010000000     0.115070000000     0.393400000000    -0.075661   
C219     C      0.216450000000     0.133010000000     0.395660000000    -0.00478906 
C220     C      0.243170000000     0.123510000000     0.391240000000    -0.00643281 
C221     C      0.248080000000     0.095800000000     0.384700000000    -0.0730734  
C222     C      0.225610000000     0.077920000000     0.381820000000    -0.00632822 
C223     C      0.134380000000     0.093080000000     0.756930000000    -0.00647212 
C224     C      0.106640000000     0.099550000000     0.761770000000    -0.0731641  
C225     C      0.088790000000     0.102470000000     0.739270000000    -0.00626369 
C226     C      0.098430000000     0.098400000000     0.712420000000    -0.00450306 
C227     C      0.126000000000     0.091090000000     0.707720000000    -0.0758039  
C228     C      0.143920000000     0.088780000000     0.730210000000    -0.00473331 
C229     C      0.838280000000     0.089000000000     0.230200000000    -0.00466035 
C230     C      0.856200000000     0.091100000000     0.207670000000    -0.0759172  
C231     C      0.883790000000     0.098210000000     0.212310000000    -0.00442095 
C232     C      0.893440000000     0.102310000000     0.239120000000    -0.00637162 
C233     C      0.875580000000     0.099600000000     0.261670000000    -0.0730669  
C234     C      0.847830000000     0.093330000000     0.256890000000    -0.00648679 
C235     C      0.006840000000     0.107030000000     0.352580000000    -0.00643565 
C236     C      0.984290000000     0.109850000000     0.370440000000    -0.0729595  
C237     C      0.989030000000     0.116330000000     0.398170000000    -0.00636307 
C238     C      0.015690000000     0.120750000000     0.407710000000    -0.00484133 
C239     C      0.038220000000     0.118550000000     0.389790000000    -0.0756728  
C240     C      0.033630000000     0.111220000000     0.362220000000    -0.00451842 
C241     C      0.338840000000     0.995600000000     0.131810000000    -0.00637428 
C242     C      0.356780000000     0.973080000000     0.134510000000    -0.073036   
C243     C      0.384520000000     0.977900000000     0.140780000000    -0.00649596 
C244     C      0.394000000000     0.004590000000     0.145110000000    -0.00466337 
C245     C      0.376000000000     0.027100000000     0.143030000000    -0.0758961  
C246     C      0.348410000000     0.022430000000     0.135910000000    -0.00448623 
C247     C      0.877710000000     0.231980000000     0.361050000000    -0.00641335 
C248     C      0.871190000000     0.236920000000     0.388760000000    -0.0731662  
C249     C      0.868280000000     0.214470000000     0.406660000000    -0.006224   
C250     C      0.872420000000     0.187600000000     0.397100000000    -0.0045853  
C251     C      0.879780000000     0.182810000000     0.369560000000    -0.0756122  
C252     C      0.882070000000     0.205240000000     0.351590000000    -0.00480031 
C253     C      0.854220000000     0.373340000000     0.502400000000    -0.00642853 
C254     C      0.860750000000     0.345630000000     0.497470000000    -0.0731195  
C255     C      0.863670000000     0.327720000000     0.519920000000    -0.00628964 
C256     C      0.859530000000     0.337290000000     0.546790000000    -0.00453995 
C257     C      0.852150000000     0.364840000000     0.551570000000    -0.0756977  
C258     C      0.849850000000     0.382810000000     0.529130000000    -0.00474193 
C259     C      0.892870000000     0.356440000000     0.738850000000    -0.00628614 
C260     C      0.875000000000     0.359270000000     0.761400000000    -0.0731058  
C261     C      0.847270000000     0.365790000000     0.756620000000    -0.00649156 
C262     C      0.837770000000     0.370250000000     0.729940000000    -0.00473796 
C263     C      0.855710000000     0.368050000000     0.707430000000    -0.0756303  
C264     C      0.883270000000     0.360670000000     0.712050000000    -0.00460074 
C265     C      0.838580000000     0.463950000000     0.877220000000    -0.00640314 
C266     C      0.856490000000     0.486380000000     0.874370000000    -0.0729015  
C267     C      0.884220000000     0.481430000000     0.867960000000    -0.00659585 
C268     C      0.893690000000     0.454680000000     0.863620000000    -0.00461092 
C269     C      0.875720000000     0.432260000000     0.865850000000    -0.0758612  
C270     C      0.848150000000     0.437080000000     0.873120000000    -0.00445152 
C271     C      0.847560000000     0.593420000000     0.752370000000    -0.00642433 
C272     C      0.875310000000     0.599620000000     0.747530000000    -0.0731055  
C273     C      0.893230000000     0.602210000000     0.770020000000    -0.00625991 
C274     C      0.883640000000     0.598060000000     0.796840000000    -0.00458875 
C275     C      0.856040000000     0.591000000000     0.801530000000    -0.0756568  
C276     C      0.838060000000     0.589030000000     0.779070000000    -0.00474929 
C277     C      0.893700000000     0.504180000000     0.645170000000    -0.00470152 
C278     C      0.875760000000     0.526730000000     0.643070000000    -0.0757662  
C279     C      0.848150000000     0.522120000000     0.636000000000    -0.00455303 
C280     C      0.838500000000     0.495310000000     0.631960000000    -0.00634773 
C281     C      0.856390000000     0.472750000000     0.634670000000    -0.0730228  
C282     C      0.884150000000     0.477500000000     0.640900000000    -0.00645376 
C283     C      0.868610000000     0.714120000000     0.602200000000    -0.00637674 
C284     C      0.871350000000     0.736630000000     0.620130000000    -0.0730102  
C285     C      0.877550000000     0.731780000000     0.647900000000    -0.0065517  
C286     C      0.881790000000     0.705070000000     0.657400000000    -0.00465221 
C287     C      0.879670000000     0.682580000000     0.639410000000    -0.0758764  
C288     C      0.872610000000     0.687280000000     0.611800000000    -0.0044902  
C289     C      0.716160000000     0.632570000000     0.894910000000    -0.00457505 
C290     C      0.693720000000     0.614640000000     0.892640000000    -0.0758695  
C291     C      0.698480000000     0.587050000000     0.885400000000    -0.00448014 
C292     C      0.725340000000     0.577420000000     0.881370000000    -0.00634555 
C293     C      0.747800000000     0.595290000000     0.884260000000    -0.0729543  
C294     C      0.742890000000     0.623040000000     0.890650000000    -0.00658305 
C295     C      0.854490000000     0.086240000000     0.002640000000    -0.00651026 
C296     C      0.860720000000     0.113990000000     0.997820000000    -0.0730045  
C297     C      0.863430000000     0.131910000000     0.020340000000    -0.00635572 
C298     C      0.859370000000     0.122320000000     0.047170000000    -0.00450736 
C299     C      0.852290000000     0.094730000000     0.051840000000    -0.0757304  
C300     C      0.850200000000     0.076750000000     0.029340000000    -0.00470124 
C301     C      0.867820000000     0.245080000000     0.906830000000    -0.00637217 
C302     C      0.870630000000     0.222500000000     0.888970000000    -0.072994   
C303     C      0.877030000000     0.227230000000     0.861230000000    -0.00647504 
C304     C      0.881400000000     0.253880000000     0.851680000000    -0.00470231 
C305     C      0.879210000000     0.276430000000     0.869600000000    -0.075808   
C306     C      0.871950000000     0.271860000000     0.897180000000    -0.00449035 
C307     C      0.966200000000     0.120430000000     0.907730000000    -0.00481701 
C308     C      0.943740000000     0.118110000000     0.889780000000    -0.0755853  
C309     C      0.948480000000     0.110780000000     0.862220000000    -0.00458423 
C310     C      0.975340000000     0.106710000000     0.852620000000    -0.00626136 
C311     C      0.997810000000     0.109660000000     0.870500000000    -0.0730895  
C312     C      0.992920000000     0.116130000000     0.898230000000    -0.00632786 
C313     C      0.506420000000     0.606680000000     0.851850000000    -0.00640335 
C314     C      0.483910000000     0.609470000000     0.869770000000    -0.0729279  
C315     C      0.488720000000     0.615910000000     0.897500000000    -0.0065413  
C316     C      0.515400000000     0.620340000000     0.906970000000    -0.00470192 
C317     C      0.537890000000     0.618180000000     0.888980000000    -0.0758412  
C318     C      0.533230000000     0.610870000000     0.861420000000    -0.00444138 
C319     C      0.364300000000     0.827740000000     0.019970000000    -0.00624773 
C320     C      0.361370000000     0.845590000000     0.997470000000    -0.073175   
C321     C      0.354840000000     0.873320000000     0.002330000000    -0.0064123  
C322     C      0.350460000000     0.882850000000     0.029040000000    -0.00482425 
C323     C      0.352770000000     0.864930000000     0.051520000000    -0.0756419  
C324     C      0.360160000000     0.837370000000     0.046810000000    -0.00460178 
C325     C      0.368510000000     0.714240000000     0.906570000000    -0.00639327 
C326     C      0.371340000000     0.736710000000     0.888680000000    -0.0729644  
C327     C      0.377630000000     0.731810000000     0.860920000000    -0.00653812 
C328     C      0.381850000000     0.705070000000     0.851380000000    -0.00467744 
C329     C      0.379640000000     0.682620000000     0.869330000000    -0.0757622  
C330     C      0.372510000000     0.687380000000     0.896930000000    -0.0044475  
C331     C      0.338340000000     0.495500000000     0.877030000000    -0.00642702 
C332     C      0.356230000000     0.472920000000     0.874380000000    -0.073005   
C333     C      0.383990000000     0.477620000000     0.868090000000    -0.00647372 
C334     C      0.393540000000     0.504260000000     0.863680000000    -0.00469471 
C335     C      0.375600000000     0.526830000000     0.865710000000    -0.0758486  
C336     C      0.347990000000     0.522280000000     0.872850000000    -0.00444572 
C337     C      0.143270000000     0.995230000000     0.877700000000    -0.00640558 
C338     C      0.125400000000     0.972750000000     0.874970000000    -0.0729378  
C339     C      0.097650000000     0.977610000000     0.868660000000    -0.00655268 
C340     C      0.088110000000     0.004310000000     0.864300000000    -0.00465261 
C341     C      0.106050000000     0.026770000000     0.866390000000    -0.0757925  
C342     C      0.133630000000     0.022060000000     0.873580000000    -0.00443734 
C343     C      0.256760000000     0.881990000000     0.881850000000    -0.0063161  
C344     C      0.234320000000     0.864070000000     0.884610000000    -0.0730493  
C345     C      0.239260000000     0.836330000000     0.890890000000    -0.00644313 
C346     C      0.265990000000     0.826850000000     0.895190000000    -0.00474383 
C347     C      0.288400000000     0.844840000000     0.893060000000    -0.0757146  
C348     C      0.283620000000     0.872410000000     0.885920000000    -0.00449416 
C349     C      0.338080000000     0.589310000000     0.729480000000    -0.0047311  
C350     C      0.356090000000     0.591330000000     0.707010000000    -0.0757984  
C351     C      0.383700000000     0.598300000000     0.711740000000    -0.00453689 
C352     C      0.393280000000     0.602320000000     0.738590000000    -0.00628954 
C353     C      0.375330000000     0.599680000000     0.761080000000    -0.0732004  
C354     C      0.347560000000     0.593560000000     0.756200000000    -0.00644565 
C355     C      0.354810000000     0.586790000000     0.501980000000    -0.00646555 
C356     C      0.360930000000     0.614560000000     0.497200000000    -0.0729669  
C357     C      0.363510000000     0.632480000000     0.519740000000    -0.00638853 
C358     C      0.359430000000     0.622850000000     0.546550000000    -0.00451784 
C359     C      0.352450000000     0.595220000000     0.551180000000    -0.0758213  
C360     C      0.350490000000     0.577250000000     0.528660000000    -0.00472879 
C361     C      0.256730000000     0.577830000000     0.381400000000    -0.00635597 
C362     C      0.234150000000     0.595690000000     0.384230000000    -0.0730762  
C363     C      0.238870000000     0.623450000000     0.390610000000    -0.00652591 
C364     C      0.265530000000     0.633000000000     0.394930000000    -0.00468751 
C365     C      0.288090000000     0.615080000000     0.392720000000    -0.0758361  
C366     C      0.283510000000     0.587480000000     0.385490000000    -0.00451115 
C367     C      0.127600000000     0.586470000000     0.506520000000    -0.00644415 
C368     C      0.121000000000     0.614180000000     0.511410000000    -0.0731427  
C369     C      0.118050000000     0.632050000000     0.488930000000    -0.00628203 
C370     C      0.122240000000     0.622460000000     0.462080000000    -0.00448325 
C371     C      0.129700000000     0.594930000000     0.457340000000    -0.075724   
C372     C      0.132020000000     0.576990000000     0.479800000000    -0.00473762 
C373     C      0.006490000000     0.606850000000     0.656730000000    -0.00644563 
C374     C      0.984010000000     0.609500000000     0.638810000000    -0.072913   
C375     C      0.988850000000     0.615780000000     0.611060000000    -0.0064176  
C376     C      0.015530000000     0.620200000000     0.601570000000    -0.00483411 
C377     C      0.038000000000     0.618190000000     0.619560000000    -0.0757022  
C378     C      0.033310000000     0.611040000000     0.647140000000    -0.00450803 
C379     C      0.216210000000     0.632840000000     0.613740000000    -0.00474798 
C380     C      0.193810000000     0.614840000000     0.615850000000    -0.0756891  
C381     C      0.198610000000     0.587250000000     0.622950000000    -0.0046275  
C382     C      0.225480000000     0.577680000000     0.626980000000    -0.00616226 
C383     C      0.247910000000     0.595610000000     0.624240000000    -0.0732022  
C384     C      0.242950000000     0.623360000000     0.618010000000    -0.00639318 
C385     C      0.716270000000     0.327000000000     0.613480000000    -0.00468472 
C386     C      0.693740000000     0.344960000000     0.615660000000    -0.075682   
C387     C      0.698350000000     0.372520000000     0.623010000000    -0.00456971 
C388     C      0.725140000000     0.382100000000     0.627230000000    -0.00628829 
C389     C      0.747690000000     0.364200000000     0.624430000000    -0.0730834  
C390     C      0.742930000000     0.336470000000     0.617930000000    -0.00654768 
C391     C      0.347310000000     0.366630000000     0.752180000000    -0.00648202 
C392     C      0.375030000000     0.360110000000     0.747350000000    -0.0730495  
C393     C      0.392860000000     0.357140000000     0.769880000000    -0.006331   
C394     C      0.383210000000     0.361220000000     0.796710000000    -0.00454232 
C395     C      0.355640000000     0.368590000000     0.801400000000    -0.0757849  
C396     C      0.337750000000     0.370940000000     0.778890000000    -0.004689   
C397     C      0.488720000000     0.343310000000     0.610820000000    -0.00640312 
C398     C      0.483880000000     0.349810000000     0.638540000000    -0.0731057  
C399     C      0.506390000000     0.352770000000     0.656380000000    -0.00629163 
C400     C      0.533220000000     0.348690000000     0.646740000000    -0.00458679 
C401     C      0.537920000000     0.341340000000     0.619170000000    -0.0756285  
C402     C      0.515430000000     0.339000000000     0.601270000000    -0.00478133 
C403     C      0.348340000000     0.437610000000     0.635370000000    -0.0046051  
C404     C      0.375890000000     0.432850000000     0.642660000000    -0.075669   
C405     C      0.393860000000     0.455280000000     0.644800000000    -0.00472672 
C406     C      0.384400000000     0.481990000000     0.640380000000    -0.00640125 
C407     C      0.356680000000     0.486910000000     0.633960000000    -0.0732735  
C408     C      0.338780000000     0.464460000000     0.631190000000    -0.00616119 
C409     C      0.393650000000     0.857140000000     0.238780000000    -0.00621592 
C410     C      0.375780000000     0.860000000000     0.261330000000    -0.0732504  
C411     C      0.348040000000     0.866460000000     0.256550000000    -0.00634642 
C412     C      0.338510000000     0.870840000000     0.229880000000    -0.0048652  
C413     C      0.356450000000     0.868600000000     0.207350000000    -0.0756213  
C414     C      0.384020000000     0.861280000000     0.211980000000    -0.00461407 
C415     C      0.507070000000     0.852650000000     0.351880000000    -0.00629312 
C416     C      0.484590000000     0.849970000000     0.369830000000    -0.0731582  
C417     C      0.489480000000     0.843770000000     0.397590000000    -0.00643273 
C418     C      0.516200000000     0.839480000000     0.407060000000    -0.00475663 
C419     C      0.538650000000     0.841530000000     0.389040000000    -0.0756754  
C420     C      0.533910000000     0.848590000000     0.361450000000    -0.00452097 
C421     C      0.372630000000     0.772570000000     0.396980000000    -0.0044453  
C422     C      0.379860000000     0.777200000000     0.369400000000    -0.0758697  
C423     C      0.381880000000     0.754690000000     0.351400000000    -0.00465497 
C424     C      0.377390000000     0.728030000000     0.360870000000    -0.00653112 
C425     C      0.371010000000     0.723250000000     0.388610000000    -0.0730255  
C426     C      0.368370000000     0.745780000000     0.406550000000    -0.00638035 
C427     C      0.348780000000     0.937710000000     0.373070000000    -0.00448415 
C428     C      0.376360000000     0.932980000000     0.365800000000    -0.0758487  
C429     C      0.394270000000     0.955440000000     0.363580000000    -0.00462873 
C430     C      0.384720000000     0.982160000000     0.367920000000    -0.00656324 
C431     C      0.356980000000     0.987040000000     0.374330000000    -0.0729661  
C432     C      0.339130000000     0.964560000000     0.377170000000    -0.00636005 
C433     C      0.839270000000     0.995480000000     0.377690000000    -0.00635831 
C434     C      0.857180000000     0.972940000000     0.374840000000    -0.0730176  
C435     C      0.884900000000     0.977720000000     0.368410000000    -0.00650307 
C436     C      0.894370000000     0.004390000000     0.364040000000    -0.0047216  
C437     C      0.876400000000     0.026920000000     0.366260000000    -0.0757479  
C438     C      0.848840000000     0.022290000000     0.373560000000    -0.00452862 
C439     C      0.743740000000     0.836590000000     0.390710000000    -0.00646144 
C440     C      0.748550000000     0.864350000000     0.384510000000    -0.0731065  
C441     C      0.726020000000     0.882270000000     0.381730000000    -0.00628598 
C442     C      0.699200000000     0.872670000000     0.385700000000    -0.00455905 
C443     C      0.694530000000     0.845070000000     0.392760000000    -0.0757514  
C444     C      0.717040000000     0.827090000000     0.394910000000    -0.00472058 
C445     C      0.860320000000     0.837190000000     0.462190000000    -0.00454759 
C446     C      0.853030000000     0.864770000000     0.457590000000    -0.0756751  
C447     C      0.850800000000     0.882710000000     0.480120000000    -0.00481809 
C448     C      0.855150000000     0.873170000000     0.506800000000    -0.00638885 
C449     C      0.861580000000     0.845420000000     0.511560000000    -0.0732227  
C450     C      0.864430000000     0.827550000000     0.488990000000    -0.00629818 
C451     C      0.609610000000     0.272260000000     0.111670000000    -0.00450262 
C452     C      0.602290000000     0.277060000000     0.139220000000    -0.0757874  
C453     C      0.600040000000     0.254640000000     0.157200000000    -0.00466514 
C454     C      0.604390000000     0.227890000000     0.147750000000    -0.00649608 
C455     C      0.610860000000     0.222940000000     0.120030000000    -0.0731509  
C456     C      0.613730000000     0.245380000000     0.102110000000    -0.00627319 
C457     C      0.597490000000     0.482110000000     0.140250000000    -0.00651587 
C458     C      0.625230000000     0.486840000000     0.133870000000    -0.0730162  
C459     C      0.643120000000     0.464270000000     0.131100000000    -0.00640272 
C460     C      0.633500000000     0.437490000000     0.135270000000    -0.00447066 
C461     C      0.605920000000     0.432910000000     0.142520000000    -0.0758416  
C462     C      0.587980000000     0.455460000000     0.144650000000    -0.00463211 
C463     C      0.631650000000     0.576910000000     0.028490000000    -0.00464782 
C464     C      0.629410000000     0.594860000000     0.051010000000    -0.0759432  
C465     C      0.622050000000     0.622420000000     0.046370000000    -0.00442112 
C466     C      0.617890000000     0.632020000000     0.019560000000    -0.00632152 
C467     C      0.620760000000     0.614130000000     0.997020000000    -0.0732038  
C468     C      0.627260000000     0.586400000000     0.001810000000    -0.00644146 
C469     C      0.738920000000     0.336600000000     0.390340000000    -0.00655357 
C470     C      0.734000000000     0.364360000000     0.384120000000    -0.0730016  
C471     C      0.756450000000     0.382290000000     0.381500000000    -0.00636749 
C472     C      0.783300000000     0.372700000000     0.385640000000    -0.00449524 
C473     C      0.788060000000     0.345100000000     0.392720000000    -0.0757835  
C474     C      0.765640000000     0.327110000000     0.394710000000    -0.0046683  
C475     C      0.631450000000     0.382860000000     0.479560000000    -0.0045995  
C476     C      0.629440000000     0.364890000000     0.457040000000    -0.0760608  
C477     C      0.622400000000     0.337290000000     0.461690000000    -0.00435912 
C478     C      0.618300000000     0.327670000000     0.488500000000    -0.00638227 
C479     C      0.620930000000     0.345580000000     0.511040000000    -0.0731553  
C480     C      0.627120000000     0.373350000000     0.506250000000    -0.00654775 
C481     C      0.643740000000     0.370740000000     0.278720000000    -0.00484599 
C482     C      0.625780000000     0.368670000000     0.301220000000    -0.0756176  
C483     C      0.598180000000     0.361600000000     0.296540000000    -0.00464152 
C484     C      0.588570000000     0.357540000000     0.269710000000    -0.00620711 
C485     C      0.606470000000     0.360220000000     0.247190000000    -0.0732863  
C486     C      0.634220000000     0.366440000000     0.252020000000    -0.00631826 
C487     C      0.493100000000     0.616760000000     0.397480000000    -0.00645392 
C488     C      0.497970000000     0.610350000000     0.369740000000    -0.0730822  
C489     C      0.475480000000     0.607490000000     0.351860000000    -0.00624623 
C490     C      0.448630000000     0.611580000000     0.361480000000    -0.00465111 
C491     C      0.443910000000     0.618830000000     0.389070000000    -0.0755962  
C492     C      0.466380000000     0.621070000000     0.407010000000    -0.00479179 
C493     C      0.634360000000     0.593420000000     0.256060000000    -0.00646996 
C494     C      0.606650000000     0.599950000000     0.260940000000    -0.073028   
C495     C      0.588760000000     0.602860000000     0.238460000000    -0.00634778 
C496     C      0.598350000000     0.598710000000     0.211610000000    -0.00445688 
C497     C      0.625900000000     0.591330000000     0.206870000000    -0.0758248  
C498     C      0.643850000000     0.589040000000     0.229340000000    -0.00470194 
C499     C      0.643170000000     0.495590000000     0.376930000000    -0.00635035 
C500     C      0.625250000000     0.473140000000     0.374210000000    -0.0729799  
C501     C      0.597520000000     0.478060000000     0.367870000000    -0.0064748  
C502     C      0.588040000000     0.504780000000     0.363480000000    -0.00477553 
C503     C      0.606030000000     0.527210000000     0.365580000000    -0.0757389  
C504     C      0.633600000000     0.522440000000     0.372770000000    -0.00450269 
C505     C      0.600690000000     0.705450000000     0.351110000000    -0.00467821 
C506     C      0.602740000000     0.682990000000     0.369080000000    -0.0758468  
C507     C      0.609970000000     0.687690000000     0.396650000000    -0.00448131 
C508     C      0.614210000000     0.714510000000     0.406240000000    -0.0063264  
C509     C      0.611530000000     0.736990000000     0.388340000000    -0.073057   
C510     C      0.605160000000     0.732140000000     0.360600000000    -0.00650835 
C511     C      0.893700000000     0.856940000000     0.270120000000    -0.00630235 
C512     C      0.875790000000     0.859810000000     0.247650000000    -0.0730656  
C513     C      0.848070000000     0.866300000000     0.252560000000    -0.00644843 
C514     C      0.838600000000     0.870690000000     0.279280000000    -0.00473932 
C515     C      0.856580000000     0.868450000000     0.301730000000    -0.0757563  
C516     C      0.884140000000     0.861100000000     0.296970000000    -0.00452902 
C517     C      0.848530000000     0.937290000000     0.136040000000    -0.00448975 
C518     C      0.876140000000     0.932570000000     0.143120000000    -0.0758038  
C519     C      0.894090000000     0.955020000000     0.145160000000    -0.00464978 
C520     C      0.884550000000     0.981730000000     0.140840000000    -0.00654357 
C521     C      0.856770000000     0.986600000000     0.134630000000    -0.0730256  
C522     C      0.838890000000     0.964120000000     0.131960000000    -0.00632654 
C523     C      0.493360000000     0.843620000000     0.897560000000    -0.00645577 
C524     C      0.498150000000     0.849900000000     0.869800000000    -0.0730805  
C525     C      0.475620000000     0.852580000000     0.851930000000    -0.00630211 
C526     C      0.448820000000     0.848440000000     0.861580000000    -0.00453425 
C527     C      0.444190000000     0.841300000000     0.889170000000    -0.0756763  
C528     C      0.466690000000     0.839250000000     0.907110000000    -0.00478566 
C529     C      0.609620000000     0.772150000000     0.896630000000    -0.00459064 
C530     C      0.602460000000     0.776830000000     0.869040000000    -0.0757322  
C531     C      0.600250000000     0.754320000000     0.851080000000    -0.00476484 
C532     C      0.604480000000     0.727610000000     0.860600000000    -0.00644978 
C533     C      0.610780000000     0.722790000000     0.888340000000    -0.0730184  
C534     C      0.613610000000     0.745310000000     0.906240000000    -0.00630679 
C535     C      0.739260000000     0.836510000000     0.617830000000    -0.00654899 
C536     C      0.734380000000     0.864250000000     0.624260000000    -0.0728902  
C537     C      0.756860000000     0.882100000000     0.627190000000    -0.00643954 
C538     C      0.783710000000     0.872440000000     0.623140000000    -0.00441827 
C539     C      0.788440000000     0.844870000000     0.615850000000    -0.0757978  
C540     C      0.765980000000     0.826960000000     0.613550000000    -0.00465913 
C541     C      0.622840000000     0.837450000000     0.546440000000    -0.00449845 
C542     C      0.630000000000     0.865020000000     0.551180000000    -0.0757104  
C543     C      0.632160000000     0.882970000000     0.528720000000    -0.00470769 
C544     C      0.627850000000     0.873470000000     0.502010000000    -0.00648457 
C545     C      0.621530000000     0.845730000000     0.497120000000    -0.0730883  
C546     C      0.618760000000     0.827840000000     0.519600000000    -0.00633772 
C547     C      0.644110000000     0.870480000000     0.729470000000    -0.0046942  
C548     C      0.626150000000     0.868510000000     0.706990000000    -0.0757663  
C549     C      0.598560000000     0.861400000000     0.711660000000    -0.00451712 
C550     C      0.588940000000     0.857230000000     0.738470000000    -0.00630904 
C551     C      0.606840000000     0.859830000000     0.760980000000    -0.0731417  
C552     C      0.634600000000     0.866070000000     0.756150000000    -0.00647637 
C553     C      0.975610000000     0.852740000000     0.656960000000    -0.00629667 
C554     C      0.998160000000     0.849990000000     0.639080000000    -0.0730649  
C555     C      0.993400000000     0.843570000000     0.611330000000    -0.00638903 
C556     C      0.966750000000     0.839120000000     0.601810000000    -0.00469839 
C557     C      0.944220000000     0.841240000000     0.619750000000    -0.0758122  
C558     C      0.948830000000     0.848520000000     0.647340000000    -0.00452219 
C559     C      0.134540000000     0.866100000000     0.752680000000    -0.00670489 
C560     C      0.106770000000     0.859930000000     0.747850000000    -0.0727888  
C561     C      0.088860000000     0.857270000000     0.770360000000    -0.00648356 
C562     C      0.098470000000     0.861310000000     0.797190000000    -0.00438698 
C563     C      0.126080000000     0.868330000000     0.801880000000    -0.0759613  
C564     C      0.144050000000     0.870370000000     0.779390000000    -0.00452994 
C565     C      0.100190000000     0.754520000000     0.657580000000    -0.00468478 
C566     C      0.102450000000     0.776980000000     0.639650000000    -0.0757483  
C567     C      0.109650000000     0.772240000000     0.612060000000    -0.00449805 
C568     C      0.113670000000     0.745380000000     0.602410000000    -0.00638831 
C569     C      0.110790000000     0.722900000000     0.620280000000    -0.0729328  
C570     C      0.104430000000     0.727790000000     0.648030000000    -0.00652715 
C571     C      0.133820000000     0.937420000000     0.636080000000    -0.00452961 
C572     C      0.106240000000     0.932820000000     0.643290000000    -0.075736   
C573     C      0.088270000000     0.955350000000     0.645390000000    -0.00474172 
C574     C      0.097770000000     0.982010000000     0.641000000000    -0.00645036 
C575     C      0.125520000000     0.986770000000     0.634650000000    -0.0731787  
C576     C      0.143430000000     0.964210000000     0.631930000000    -0.00629125 
C577     C      0.354780000000     0.086510000000     0.506610000000    -0.0064285  
C578     C      0.361030000000     0.114250000000     0.511550000000    -0.0732048  
C579     C      0.363750000000     0.132190000000     0.489100000000    -0.00622743 
C580     C      0.359690000000     0.122630000000     0.462240000000    -0.00454049 
C581     C      0.352580000000     0.095050000000     0.457450000000    -0.0757812  
C582     C      0.350480000000     0.077050000000     0.479880000000    -0.00472297 
C583     C      0.367920000000     0.245380000000     0.602350000000    -0.00633399 
C584     C      0.370770000000     0.222930000000     0.620270000000    -0.0728694  
C585     C      0.377200000000     0.227840000000     0.647980000000    -0.00664314 
C586     C      0.381560000000     0.254560000000     0.657420000000    -0.00459303 
C587     C      0.379350000000     0.276990000000     0.639440000000    -0.0757904  
C588     C      0.372050000000     0.272230000000     0.611890000000    -0.00452304 
C589     C      0.265590000000     0.132660000000     0.614290000000    -0.00479486 
C590     C      0.288110000000     0.114660000000     0.616220000000    -0.0756479  
C591     C      0.283490000000     0.087040000000     0.623210000000    -0.00459383 
C592     C      0.256690000000     0.077430000000     0.627320000000    -0.00628817 
C593     C      0.234150000000     0.095360000000     0.624750000000    -0.0730699  
C594     C      0.238920000000     0.123150000000     0.618630000000    -0.00648933 
C595     C      0.475520000000     0.107440000000     0.656850000000    -0.00630614 
C596     C      0.498000000000     0.110140000000     0.638900000000    -0.0731253  
C597     C      0.493100000000     0.116320000000     0.611140000000    -0.00643405 
C598     C      0.466380000000     0.120580000000     0.601670000000    -0.00468684 
C599     C      0.443920000000     0.118500000000     0.619680000000    -0.0758182  
C600     C      0.448670000000     0.111460000000     0.647280000000    -0.00452276 
C601     C      0.643480000000     0.995640000000     0.631550000000    -0.00633691 
C602     C      0.625590000000     0.973170000000     0.634280000000    -0.0731311  
C603     C      0.597840000000     0.978070000000     0.640620000000    -0.00645241 
C604     C      0.588310000000     0.004790000000     0.644990000000    -0.00476336 
C605     C      0.606260000000     0.027240000000     0.642880000000    -0.0756628  
C606     C      0.633850000000     0.022490000000     0.635690000000    -0.00453718 
C607     C      0.600350000000     0.205570000000     0.657120000000    -0.00470334 
C608     C      0.602480000000     0.183020000000     0.639190000000    -0.0758085  
C609     C      0.609660000000     0.187610000000     0.611590000000    -0.00443805 
C610     C      0.613770000000     0.214390000000     0.601940000000    -0.00640851 
C611     C      0.611020000000     0.236960000000     0.619810000000    -0.0729591  
C612     C      0.604690000000     0.232220000000     0.647570000000    -0.00650818 
C613     C      0.756490000000     0.077370000000     0.881670000000    -0.00638717 
C614     C      0.733940000000     0.095290000000     0.884450000000    -0.0730989  
C615     C      0.738710000000     0.123020000000     0.890890000000    -0.00647006 
C616     C      0.765380000000     0.132490000000     0.895330000000    -0.00465246 
C617     C      0.787900000000     0.114520000000     0.893170000000    -0.0758325  
C618     C      0.783280000000     0.086950000000     0.885880000000    -0.00445949 
C619     C      0.597660000000     0.981900000000     0.867800000000    -0.00641084 
C620     C      0.625400000000     0.986700000000     0.874110000000    -0.0731679  
C621     C      0.643320000000     0.964170000000     0.876820000000    -0.00623651 
C622     C      0.633750000000     0.937350000000     0.872690000000    -0.00458443 
C623     C      0.606170000000     0.932700000000     0.865530000000    -0.0757564  
C624     C      0.588180000000     0.955220000000     0.863440000000    -0.00478286 
C625     C      0.643920000000     0.089270000000     0.778950000000    -0.00463519 
C626     C      0.625940000000     0.091400000000     0.801440000000    -0.0758299  
C627     C      0.598370000000     0.098700000000     0.796780000000    -0.0044404  
C628     C      0.588790000000     0.102920000000     0.769970000000    -0.00646439 
C629     C      0.606710000000     0.100160000000     0.747450000000    -0.072859   
C630     C      0.634450000000     0.093720000000     0.752270000000    -0.00660613 
C631     C      0.631770000000     0.076820000000     0.979760000000    -0.00465467 
C632     C      0.629500000000     0.094760000000     0.957300000000    -0.0758875  
C633     C      0.622210000000     0.122340000000     0.962050000000    -0.00444963 
C634     C      0.618130000000     0.131960000000     0.988910000000    -0.00639437 
C635     C      0.621030000000     0.114070000000     0.011390000000    -0.0730671  
C636     C      0.627460000000     0.086330000000     0.006490000000    -0.00651189 
C637     C      0.863570000000     0.631910000000     0.988840000000    -0.00633716 
C638     C      0.860910000000     0.614020000000     0.011330000000    -0.0729911  
C639     C      0.854670000000     0.586270000000     0.006480000000    -0.00644686 
C640     C      0.850310000000     0.576740000000     0.979780000000    -0.00477173 
C641     C      0.852340000000     0.594690000000     0.957310000000    -0.0756814  
C642     C      0.859440000000     0.622280000000     0.962010000000    -0.00452668 
C643     C      0.868330000000     0.745320000000     0.102170000000    -0.00643903 
C644     C      0.870910000000     0.722830000000     0.120090000000    -0.0729053  
C645     C      0.877180000000     0.727680000000     0.147850000000    -0.00653071 
C646     C      0.881650000000     0.754360000000     0.157360000000    -0.00471018 
C647     C      0.879700000000     0.776820000000     0.139380000000    -0.0757609  
C648     C      0.872570000000     0.772130000000     0.111780000000    -0.00444881 
C649     C      0.783280000000     0.587120000000     0.122760000000    -0.00456566 
C650     C      0.787930000000     0.614720000000     0.115680000000    -0.0758029  
C651     C      0.765410000000     0.632690000000     0.113530000000    -0.00472187 
C652     C      0.738720000000     0.623180000000     0.117760000000    -0.00645902 
C653     C      0.733920000000     0.595420000000     0.124000000000    -0.0731242  
C654     C      0.756460000000     0.577520000000     0.126770000000    -0.00625237 
C655     C      0.368420000000     0.214370000000     0.102020000000    -0.00626297 
C656     C      0.371140000000     0.236920000000     0.119900000000    -0.0730878  
C657     C      0.377410000000     0.232140000000     0.147660000000    -0.00639246 
C658     C      0.381720000000     0.205450000000     0.157210000000    -0.00483325 
C659     C      0.379610000000     0.182920000000     0.139260000000    -0.0756009  
C660     C      0.372490000000     0.187550000000     0.111660000000    -0.00463523 
C661     C      0.359420000000     0.337320000000     0.961850000000    -0.00443094 
C662     C      0.352050000000     0.364880000000     0.957240000000    -0.0758718  
C663     C      0.349820000000     0.382820000000     0.979780000000    -0.0046641  
C664     C      0.354260000000     0.373310000000     0.006450000000    -0.00653763 
C665     C      0.360790000000     0.345590000000     0.011210000000    -0.0729211  
C666     C      0.363630000000     0.327710000000     0.988650000000    -0.00644696 
C667     C      0.466350000000     0.339280000000     0.101250000000    -0.00463264 
C668     C      0.443840000000     0.341510000000     0.119200000000    -0.0759068  
C669     C      0.448490000000     0.348850000000     0.146760000000    -0.00438743 
C670     C      0.475290000000     0.353020000000     0.156360000000    -0.00643737 
C671     C      0.497820000000     0.350160000000     0.138470000000    -0.0729615  
C672     C      0.493020000000     0.343680000000     0.110740000000    -0.00654327 
C673     C      0.975450000000     0.352830000000     0.352290000000    -0.00639922 
C674     C      0.997910000000     0.350190000000     0.370260000000    -0.0729545  
C675     C      0.993000000000     0.343960000000     0.398010000000    -0.00647288 
C676     C      0.966290000000     0.339590000000     0.407450000000    -0.00467344 
C677     C      0.943860000000     0.341600000000     0.389420000000    -0.0758978  
C678     C      0.948610000000     0.348700000000     0.361830000000    -0.00444913 
C679     C      0.133810000000     0.437540000000     0.373090000000    -0.00437171 
C680     C      0.106200000000     0.432910000000     0.366030000000    -0.0759723  
C681     C      0.088250000000     0.455450000000     0.363950000000    -0.00455804 
C682     C      0.097780000000     0.482130000000     0.368210000000    -0.00662525 
C683     C      0.125550000000     0.486900000000     0.374420000000    -0.0728835  
C684     C      0.143450000000     0.464350000000     0.377120000000    -0.0064895  
C685     C      0.109470000000     0.272470000000     0.397580000000    -0.00457881 
C686     C      0.102420000000     0.277120000000     0.369960000000    -0.0756995  
C687     C      0.100400000000     0.254600000000     0.351990000000    -0.00480996 
C688     C      0.104720000000     0.227910000000     0.361530000000    -0.00636994 
C689     C      0.110910000000     0.223120000000     0.389300000000    -0.0731792  
C690     C      0.113550000000     0.245660000000     0.407210000000    -0.0062855  
C691     C      0.134350000000     0.593420000000     0.252290000000    -0.00647614 
C692     C      0.106620000000     0.599950000000     0.247550000000    -0.0730936  
C693     C      0.088790000000     0.602870000000     0.270110000000    -0.00631987 
C694     C      0.098450000000     0.598730000000     0.296910000000    -0.00449183 
C695     C      0.126010000000     0.591350000000     0.301510000000    -0.0757878  
C696     C      0.143900000000     0.589050000000     0.278960000000    -0.00469149 
C697     C      0.975280000000     0.607290000000     0.156790000000    -0.00626863 
C698     C      0.997800000000     0.610000000000     0.138900000000    -0.073085   
C699     C      0.992970000000     0.616200000000     0.111130000000    -0.00632872 
C700     C      0.966270000000     0.620470000000     0.101590000000    -0.00476604 
C701     C      0.943770000000     0.618380000000     0.119550000000    -0.0758028  
C702     C      0.948450000000     0.611320000000     0.147160000000    -0.0045255  
C703     C      0.127700000000     0.873020000000     0.006920000000    -0.00652077 
C704     C      0.121540000000     0.845250000000     0.011730000000    -0.0729389  
C705     C      0.118890000000     0.827330000000     0.989210000000    -0.00639575 
C706     C      0.122930000000     0.836940000000     0.962380000000    -0.00448427 
C707     C      0.129930000000     0.864550000000     0.957720000000    -0.0758003  
C708     C      0.131970000000     0.882530000000     0.980230000000    -0.00470785 
C709     C      0.114180000000     0.714120000000     0.102440000000    -0.00632703 
C710     C      0.111460000000     0.736660000000     0.120360000000    -0.0731802  
C711     C      0.105000000000     0.731880000000     0.148090000000    -0.00642424 
C712     C      0.100480000000     0.705220000000     0.157550000000    -0.00475346 
C713     C      0.102570000000     0.682710000000     0.139560000000    -0.075751   
C714     C      0.109890000000     0.687330000000     0.112010000000    -0.00448964 
C715     C      0.198970000000     0.872440000000     0.123410000000    -0.00448887 
C716     C      0.194390000000     0.844840000000     0.116210000000    -0.0758115  
C717     C      0.216950000000     0.826910000000     0.114030000000    -0.0047109  
C718     C      0.243610000000     0.836470000000     0.118330000000    -0.00651687 
C719     C      0.248330000000     0.864240000000     0.124660000000    -0.0730004  
C720     C      0.225750000000     0.882100000000     0.127470000000    -0.0063812  
C721     C      0.033760000000     0.848310000000     0.147330000000    -0.00453909 
C722     C      0.038550000000     0.841090000000     0.119750000000    -0.0757044  
C723     C      0.016120000000     0.838880000000     0.101750000000    -0.00486711 
C724     C      0.989380000000     0.843190000000     0.111220000000    -0.00633822 
C725     C      0.984450000000     0.849560000000     0.138960000000    -0.0730656  
C726     C      0.006900000000     0.852390000000     0.156900000000    -0.00638357 
C727     C      0.238850000000     0.336350000000     0.117960000000    -0.00658004 
C728     C      0.233910000000     0.364070000000     0.124450000000    -0.0729419  
C729     C      0.256350000000     0.381980000000     0.127300000000    -0.00634866 
C730     C      0.283210000000     0.372410000000     0.123140000000    -0.00451986 
C731     C      0.288000000000     0.344860000000     0.115790000000    -0.0757097  
C732     C      0.265590000000     0.326890000000     0.113560000000    -0.00464247 
C733     C      0.097370000000     0.477710000000     0.141190000000    -0.00648035 
C734     C      0.125080000000     0.472780000000     0.134690000000    -0.0730571  
C735     C      0.142950000000     0.495230000000     0.131730000000    -0.00631925 
C736     C      0.133340000000     0.522100000000     0.135810000000    -0.00449914 
C737     C      0.105800000000     0.526880000000     0.143170000000    -0.0756943  
C738     C      0.087870000000     0.504450000000     0.145500000000    -0.00469517 
C739     C      0.143820000000     0.370300000000     0.230010000000    -0.00469183 
C740     C      0.125820000000     0.368240000000     0.207560000000    -0.0758513  
C741     C      0.098240000000     0.361150000000     0.212310000000    -0.00445006 
C742     C      0.088670000000     0.357070000000     0.239150000000    -0.00635596 
C743     C      0.106600000000     0.359760000000     0.261620000000    -0.0730167  
C744     C      0.134350000000     0.365990000000     0.256730000000    -0.00653776 
C745     C      0.104580000000     0.231730000000     0.861250000000    -0.00643059 
C746     C      0.110930000000     0.236640000000     0.888980000000    -0.0731543  
C747     C      0.113690000000     0.214190000000     0.906910000000    -0.00625721 
C748     C      0.109550000000     0.187350000000     0.897360000000    -0.0045488  
C749     C      0.102330000000     0.182590000000     0.869800000000    -0.0756407  
C750     C      0.100200000000     0.205010000000     0.851800000000    -0.00474815 
C751     C      0.118090000000     0.327440000000     0.020110000000    -0.00627629 
C752     C      0.120690000000     0.345380000000     0.997660000000    -0.073119   
C753     C      0.126860000000     0.373140000000     0.002570000000    -0.00642924 
C754     C      0.131210000000     0.382620000000     0.029280000000    -0.00471421 
C755     C      0.129240000000     0.364620000000     0.051720000000    -0.0758557  
C756     C      0.122210000000     0.337020000000     0.046960000000    -0.00449828 
C757     C      0.015300000000     0.338880000000     0.907360000000    -0.00479952 
C758     C      0.037790000000     0.340970000000     0.889390000000    -0.0757014  
C759     C      0.033090000000     0.347990000000     0.861780000000    -0.00447234 
C760     C      0.006260000000     0.351970000000     0.852150000000    -0.00652422 
C761     C      0.983750000000     0.349260000000     0.870060000000    -0.0727794  
C762     C      0.988590000000     0.343090000000     0.897830000000    -0.00648427 
C763     C      0.198170000000     0.372600000000     0.886000000000    -0.00446811 
C764     C      0.193570000000     0.344970000000     0.893010000000    -0.0759263  
C765     C      0.216110000000     0.327000000000     0.894940000000    -0.00461808 
C766     C      0.242770000000     0.336530000000     0.890580000000    -0.00652956 
C767     C      0.247520000000     0.364310000000     0.884430000000    -0.0730444  
C768     C      0.224960000000     0.382230000000     0.881870000000    -0.00641379 
H1       H      0.398050000000     0.100450000000     0.313800000000     0.0509046  
H2       H      0.316790000000     0.084180000000     0.282120000000     0.0502369  
H3       H      0.333320000000     0.091740000000     0.235520000000     0.0512547  
H4       H      0.414780000000     0.107780000000     0.266860000000     0.0518856  
H5       H      0.550350000000     0.109620000000     0.161470000000     0.0509274  
H6       H      0.518650000000     0.125820000000     0.080180000000     0.0502461  
H7       H      0.472060000000     0.118280000000     0.096730000000     0.0512764  
H8       H      0.503420000000     0.102310000000     0.178220000000     0.0519103  
H9       H      0.759900000000     0.137460000000     0.116400000000     0.0512796  
H10      H      0.728610000000     0.056000000000     0.132350000000     0.0519083  
H11      H      0.681670000000     0.072780000000     0.124890000000     0.050871   
H12      H      0.713300000000     0.154040000000     0.108710000000     0.0502296  
H13      H      0.113230000000     0.153680000000     0.517430000000     0.0518571  
H14      H      0.129750000000     0.072300000000     0.485710000000     0.0512747  
H15      H      0.137370000000     0.055650000000     0.532230000000     0.0502359  
H16      H      0.120620000000     0.136830000000     0.564310000000     0.0509047  
H17      H      0.181830000000     0.073230000000     0.384190000000     0.0509406  
H18      H      0.213420000000     0.154360000000     0.401260000000     0.0502803  
H19      H      0.260050000000     0.137800000000     0.393560000000     0.0512606  
H20      H      0.228800000000     0.056470000000     0.376710000000     0.0519161  
H21      H      0.148660000000     0.090730000000     0.773830000000     0.0512671  
H22      H      0.067320000000     0.107520000000     0.742410000000     0.0518651  
H23      H      0.084150000000     0.100250000000     0.695450000000     0.0509077  
H24      H      0.165290000000     0.083240000000     0.727220000000     0.0502625  
H25      H      0.816890000000     0.083620000000     0.227270000000     0.0502205  
H26      H      0.898070000000     0.099890000000     0.195300000000     0.0508746  
H27      H      0.914920000000     0.107200000000     0.242210000000     0.051895   
H28      H      0.833540000000     0.091150000000     0.273830000000     0.0512645  
H29      H      0.003780000000     0.101980000000     0.331110000000     0.0518694  
H30      H      0.972080000000     0.118610000000     0.412460000000     0.0512557  
H31      H      0.018600000000     0.126300000000     0.429090000000     0.050239   
H32      H      0.050640000000     0.109440000000     0.347940000000     0.0509171  
H33      H      0.317360000000     0.992490000000     0.126920000000     0.0518736  
H34      H      0.398870000000     0.960980000000     0.142960000000     0.0512688  
H35      H      0.415390000000     0.007560000000     0.150500000000     0.0502387  
H36      H      0.334080000000     0.039410000000     0.134230000000     0.0508812  
H37      H      0.880050000000     0.248840000000     0.346730000000     0.0512364  
H38      H      0.863190000000     0.217680000000     0.428110000000     0.0519021  
H39      H      0.870580000000     0.170680000000     0.411420000000     0.0509458  
H40      H      0.887650000000     0.202180000000     0.330240000000     0.050298   
H41      H      0.851870000000     0.387660000000     0.485530000000     0.0512443  
H42      H      0.868770000000     0.306270000000     0.516720000000     0.0519222  
H43      H      0.861380000000     0.322970000000     0.563710000000     0.0509449  
H44      H      0.844260000000     0.404170000000     0.532180000000     0.050282   
H45      H      0.914330000000     0.351360000000     0.741940000000     0.051879   
H46      H      0.832970000000     0.368070000000     0.773550000000     0.0512754  
H47      H      0.816400000000     0.375830000000     0.727010000000     0.0502335  
H48      H      0.897570000000     0.358900000000     0.695060000000     0.0509362  
H49      H      0.817120000000     0.467180000000     0.882230000000     0.0519392  
H50      H      0.898540000000     0.498280000000     0.865670000000     0.0513144  
H51      H      0.915060000000     0.451610000000     0.858120000000     0.0502522  
H52      H      0.833840000000     0.420160000000     0.874910000000     0.0509086  
H53      H      0.833230000000     0.591330000000     0.735470000000     0.0512574  
H54      H      0.914720000000     0.607050000000     0.766870000000     0.0518906  
H55      H      0.897960000000     0.599640000000     0.813800000000     0.0509282  
H56      H      0.816660000000     0.583700000000     0.782050000000     0.0502483  
H57      H      0.915110000000     0.507090000000     0.650530000000     0.0502462  
H58      H      0.833860000000     0.539130000000     0.634320000000     0.0509043  
H59      H      0.817010000000     0.492250000000     0.627090000000     0.0518752  
H60      H      0.898460000000     0.460540000000     0.643090000000     0.0512544  
H61      H      0.863760000000     0.717260000000     0.580710000000     0.0518968  
H62      H      0.879760000000     0.748690000000     0.662230000000     0.0512873  
H63      H      0.887130000000     0.702080000000     0.678800000000     0.0502456  
H64      H      0.870910000000     0.670310000000     0.597470000000     0.0508804  
H65      H      0.713130000000     0.653960000000     0.900400000000     0.0502232  
H66      H      0.681550000000     0.572760000000     0.883580000000     0.050909   
H67      H      0.728530000000     0.555940000000     0.876370000000     0.0519129  
H68      H      0.759770000000     0.637330000000     0.892970000000     0.0513018  
H69      H      0.852310000000     0.071910000000     0.985720000000     0.0512709  
H70      H      0.868290000000     0.153390000000     0.017210000000     0.0518952  
H71      H      0.861050000000     0.136650000000     0.064150000000     0.0508971  
H72      H      0.844840000000     0.055360000000     0.032310000000     0.0502584  
H73      H      0.862820000000     0.242040000000     0.928310000000     0.0518855  
H74      H      0.879300000000     0.210260000000     0.846950000000     0.0512796  
H75      H      0.886890000000     0.256770000000     0.830290000000     0.0502203  
H76      H      0.870190000000     0.288890000000     0.911450000000     0.0508998  
H77      H      0.963170000000     0.125980000000     0.929100000000     0.0502965  
H78      H      0.931530000000     0.108920000000     0.847920000000     0.0509455  
H79      H      0.978510000000     0.101650000000     0.831160000000     0.0519023  
H80      H      0.009810000000     0.118490000000     0.912530000000     0.0511707  
H81      H      0.503300000000     0.601650000000     0.830380000000     0.0519113  
H82      H      0.471810000000     0.618160000000     0.911830000000     0.0512963  
H83      H      0.518360000000     0.625860000000     0.928340000000     0.0502432  
H84      H      0.550200000000     0.609130000000     0.847090000000     0.0508743  
H85      H      0.369400000000     0.806280000000     0.016820000000     0.0518688  
H86      H      0.352480000000     0.887590000000     0.985430000000     0.0512552  
H87      H      0.344870000000     0.904210000000     0.032040000000     0.0502797  
H88      H      0.362010000000     0.823100000000     0.063770000000     0.0509505  
H89      H      0.363590000000     0.717430000000     0.928060000000     0.0519176  
H90      H      0.379900000000     0.748690000000     0.846620000000     0.0512908  
H91      H      0.387260000000     0.702040000000     0.829980000000     0.0502528  
H92      H      0.370740000000     0.670430000000     0.911230000000     0.0508934  
H93      H      0.316850000000     0.492470000000     0.881930000000     0.0518837  
H94      H      0.398300000000     0.460650000000     0.865950000000     0.0512821  
H95      H      0.414950000000     0.507140000000     0.858280000000     0.0502215  
H96      H      0.333690000000     0.539310000000     0.874490000000     0.0508613  
H97      H      0.164750000000     0.992080000000     0.882630000000     0.051925   
H98      H      0.083350000000     0.960720000000     0.866460000000     0.0512756  
H99      H      0.066720000000     0.007310000000     0.858870000000     0.0502112  
H100     H      0.147920000000     0.039010000000     0.875270000000     0.0508972  
H101     H      0.253540000000     0.903470000000     0.876950000000     0.0519113  
H102     H      0.222400000000     0.822000000000     0.893110000000     0.0512584  
H103     H      0.269040000000     0.805470000000     0.900590000000     0.0502617  
H104     H      0.300530000000     0.886740000000     0.884210000000     0.0509084  
H105     H      0.316680000000     0.584030000000     0.726470000000     0.0502613  
H106     H      0.398040000000     0.599920000000     0.694790000000     0.0508949  
H107     H      0.414770000000     0.607100000000     0.741750000000     0.0518868  
H108     H      0.333210000000     0.591440000000     0.773090000000     0.0512499  
H109     H      0.352730000000     0.572460000000     0.485040000000     0.0512588  
H110     H      0.368300000000     0.653980000000     0.516650000000     0.051893   
H111     H      0.361010000000     0.637160000000     0.563550000000     0.0508782  
H112     H      0.345210000000     0.555840000000     0.531590000000     0.0502347  
H113     H      0.253690000000     0.556350000000     0.376420000000     0.0518648  
H114     H      0.221900000000     0.637730000000     0.392880000000     0.0512798  
H115     H      0.268420000000     0.654390000000     0.400400000000     0.0502196  
H116     H      0.300540000000     0.573200000000     0.383720000000     0.0508925  
H117     H      0.129970000000     0.572180000000     0.523410000000     0.0512766  
H118     H      0.112900000000     0.653500000000     0.492100000000     0.051884   
H119     H      0.120380000000     0.636760000000     0.445130000000     0.0509171  
H120     H      0.137660000000     0.555640000000     0.476780000000     0.0502698  
H121     H      0.003350000000     0.601950000000     0.678210000000     0.0519052  
H122     H      0.971950000000     0.617910000000     0.596730000000     0.05127    
H123     H      0.018520000000     0.625610000000     0.580180000000     0.0502389  
H124     H      0.050260000000     0.609420000000     0.661470000000     0.0508819  
H125     H      0.213140000000     0.654230000000     0.608370000000     0.0502708  
H126     H      0.181710000000     0.572920000000     0.624640000000     0.0509585  
H127     H      0.228710000000     0.556190000000     0.631850000000     0.0518894  
H128     H      0.259800000000     0.637700000000     0.615810000000     0.0512489  
H129     H      0.713350000000     0.305630000000     0.607920000000     0.0502465  
H130     H      0.681340000000     0.386830000000     0.624770000000     0.0509232  
H131     H      0.728210000000     0.403560000000     0.632300000000     0.0518631  
H132     H      0.759870000000     0.322160000000     0.615670000000     0.0513057  
H133     H      0.333050000000     0.369010000000     0.735260000000     0.0512676  
H134     H      0.414320000000     0.352050000000     0.766750000000     0.0518963  
H135     H      0.397460000000     0.359340000000     0.813690000000     0.0509461  
H136     H      0.316380000000     0.376520000000     0.781860000000     0.050238   
H137     H      0.471810000000     0.340930000000     0.596550000000     0.0512533  
H138     H      0.503250000000     0.357850000000     0.677840000000     0.0518834  
H139     H      0.550200000000     0.350560000000     0.661000000000     0.0509527  
H140     H      0.518420000000     0.333430000000     0.579900000000     0.0502678  
H141     H      0.334020000000     0.420690000000     0.633650000000     0.0509439  
H142     H      0.415230000000     0.452240000000     0.650310000000     0.0502485  
H143     H      0.398720000000     0.498860000000     0.642610000000     0.0512432  
H144     H      0.317320000000     0.467650000000     0.626180000000     0.0518765  
H145     H      0.415120000000     0.852090000000     0.241870000000     0.0518599  
H146     H      0.333750000000     0.868760000000     0.273490000000     0.0512518  
H147     H      0.317140000000     0.876380000000     0.226950000000     0.0502987  
H148     H      0.398300000000     0.859490000000     0.194980000000     0.0509474  
H149     H      0.503890000000     0.857500000000     0.330390000000     0.051874   
H150     H      0.472590000000     0.841620000000     0.411950000000     0.0512456  
H151     H      0.519220000000     0.834140000000     0.428460000000     0.0502819  
H152     H      0.550860000000     0.850240000000     0.347090000000     0.0508662  
H153     H      0.370990000000     0.789560000000     0.411320000000     0.0508735  
H154     H      0.387350000000     0.757620000000     0.330010000000     0.0502111  
H155     H      0.379530000000     0.711100000000     0.346530000000     0.0512863  
H156     H      0.363400000000     0.742690000000     0.428030000000     0.0518884  
H157     H      0.334510000000     0.920760000000     0.374850000000     0.0509214  
H158     H      0.415650000000     0.952430000000     0.358080000000     0.0502151  
H159     H      0.398990000000     0.999050000000     0.365630000000     0.0512799  
H160     H      0.317660000000     0.967720000000     0.382180000000     0.0519142  
H161     H      0.817810000000     0.992400000000     0.382720000000     0.0518824  
H162     H      0.899220000000     0.960780000000     0.366110000000     0.0512633  
H163     H      0.915730000000     0.007320000000     0.358510000000     0.050254   
H164     H      0.834530000000     0.039290000000     0.375340000000     0.0509219  
H165     H      0.760670000000     0.822260000000     0.392940000000     0.0512596  
H166     H      0.729130000000     0.903760000000     0.376880000000     0.051869   
H167     H      0.682210000000     0.886990000000     0.383980000000     0.0508947  
H168     H      0.714080000000     0.805690000000     0.400250000000     0.0502474  
H169     H      0.862110000000     0.822900000000     0.445180000000     0.0509076  
H170     H      0.845290000000     0.904090000000     0.477210000000     0.0502588  
H171     H      0.852850000000     0.887460000000     0.523750000000     0.0512659  
H172     H      0.869450000000     0.806080000000     0.492070000000     0.0518777  
H173     H      0.611410000000     0.289180000000     0.097340000000     0.0509136  
H174     H      0.594500000000     0.257710000000     0.178570000000     0.0502407  
H175     H      0.602080000000     0.211040000000     0.162080000000     0.0512668  
H176     H      0.618780000000     0.242160000000     0.080650000000     0.0518924  
H177     H      0.583180000000     0.499070000000     0.142480000000     0.0512771  
H178     H      0.664590000000     0.467320000000     0.126120000000     0.0518913  
H179     H      0.647800000000     0.420470000000     0.133550000000     0.0508848  
H180     H      0.566590000000     0.452560000000     0.150130000000     0.0502031  
H181     H      0.637220000000     0.555540000000     0.031420000000     0.0502181  
H182     H      0.620250000000     0.636730000000     0.063370000000     0.0508762  
H183     H      0.612820000000     0.653480000000     0.016470000000     0.051879   
H184     H      0.629570000000     0.572090000000     0.984870000000     0.0512599  
H185     H      0.722060000000     0.322270000000     0.392450000000     0.0512855  
H186     H      0.753250000000     0.403780000000     0.376640000000     0.0519219  
H187     H      0.800220000000     0.387030000000     0.384030000000     0.0509038  
H188     H      0.768680000000     0.305710000000     0.400070000000     0.0502236  
H189     H      0.636780000000     0.404260000000     0.476620000000     0.0501981  
H190     H      0.620780000000     0.322970000000     0.444690000000     0.0508348  
H191     H      0.613470000000     0.306180000000     0.491600000000     0.0518752  
H192     H      0.629240000000     0.387670000000     0.523180000000     0.051272   
H193     H      0.665130000000     0.376090000000     0.281690000000     0.0502821  
H194     H      0.583870000000     0.359940000000     0.313520000000     0.0509281  
H195     H      0.567090000000     0.352680000000     0.266580000000     0.0518551  
H196     H      0.648540000000     0.368610000000     0.235100000000     0.0512111  
H197     H      0.509990000000     0.619050000000     0.411780000000     0.0512623  
H198     H      0.478640000000     0.602480000000     0.330380000000     0.0518815  
H199     H      0.431680000000     0.609780000000     0.347190000000     0.0509626  
H200     H      0.463370000000     0.626570000000     0.428390000000     0.0503007  
H201     H      0.648670000000     0.591090000000     0.272950000000     0.0512769  
H202     H      0.567300000000     0.607950000000     0.241630000000     0.0519003  
H203     H      0.584050000000     0.600540000000     0.194650000000     0.0509024  
H204     H      0.665210000000     0.583460000000     0.226320000000     0.0502714  
H205     H      0.664640000000     0.492390000000     0.381880000000     0.0519289  
H206     H      0.583190000000     0.461200000000     0.365670000000     0.0512583  
H207     H      0.566670000000     0.507820000000     0.358030000000     0.0502573  
H208     H      0.647920000000     0.539360000000     0.374460000000     0.0509307  
H209     H      0.595220000000     0.702460000000     0.329730000000     0.0502098  
H210     H      0.611630000000     0.670740000000     0.410960000000     0.0509129  
H211     H      0.619180000000     0.717650000000     0.427710000000     0.0519096  
H212     H      0.602990000000     0.749030000000     0.346280000000     0.0512571  
H213     H      0.915160000000     0.851880000000     0.266930000000     0.0519079  
H214     H      0.833740000000     0.868600000000     0.235680000000     0.0512694  
H215     H      0.817240000000     0.876250000000     0.282310000000     0.050284   
H216     H      0.898460000000     0.859300000000     0.313910000000     0.0509117  
H217     H      0.834230000000     0.920340000000     0.134400000000     0.0509112  
H218     H      0.915500000000     0.952010000000     0.150510000000     0.0502124  
H219     H      0.898850000000     0.998620000000     0.143000000000     0.0512849  
H220     H      0.817390000000     0.967290000000     0.127110000000     0.0518946  
H221     H      0.510280000000     0.841460000000     0.911850000000     0.0512795  
H222     H      0.478730000000     0.857480000000     0.830440000000     0.0518833  
H223     H      0.431840000000     0.850090000000     0.847290000000     0.0509153  
H224     H      0.463740000000     0.833850000000     0.928500000000     0.050252   
H225     H      0.611390000000     0.789130000000     0.910930000000     0.0509329  
H226     H      0.594830000000     0.757290000000     0.829700000000     0.0502671  
H227     H      0.602210000000     0.710690000000     0.846280000000     0.0512367  
H228     H      0.618540000000     0.742190000000     0.927720000000     0.0518788  
H229     H      0.722370000000     0.822240000000     0.615480000000     0.0513043  
H230     H      0.753690000000     0.903570000000     0.632220000000     0.0519314  
H231     H      0.800660000000     0.886710000000     0.624990000000     0.0509034  
H232     H      0.769000000000     0.805580000000     0.608030000000     0.0502411  
H233     H      0.621100000000     0.823150000000     0.563390000000     0.0509231  
H234     H      0.637590000000     0.904350000000     0.531740000000     0.0502291  
H235     H      0.630080000000     0.887770000000     0.485120000000     0.0512649  
H236     H      0.613830000000     0.806380000000     0.516430000000     0.0519239  
H237     H      0.665500000000     0.875850000000     0.726500000000     0.0502404  
H238     H      0.584250000000     0.859810000000     0.694690000000     0.0508959  
H239     H      0.567460000000     0.852360000000     0.741590000000     0.0518843  
H240     H      0.648910000000     0.868180000000     0.773060000000     0.051271   
H241     H      0.978690000000     0.857750000000     0.678440000000     0.0519001  
H242     H      0.010340000000     0.841350000000     0.597030000000     0.0512136  
H243     H      0.963830000000     0.833610000000     0.580420000000     0.0502501  
H244     H      0.931830000000     0.850240000000     0.661630000000     0.0509177  
H245     H      0.148860000000     0.868240000000     0.735770000000     0.051326   
H246     H      0.067370000000     0.852460000000     0.767230000000     0.0519162  
H247     H      0.084150000000     0.859670000000     0.814170000000     0.0508336  
H248     H      0.165450000000     0.875680000000     0.782360000000     0.0502011  
H249     H      0.094730000000     0.757540000000     0.678970000000     0.0502562  
H250     H      0.111460000000     0.789190000000     0.597780000000     0.0509159  
H251     H      0.118630000000     0.742210000000     0.580930000000     0.05193    
H252     H      0.102120000000     0.710900000000     0.662320000000     0.0512668  
H253     H      0.148140000000     0.920410000000     0.634390000000     0.0508901  
H254     H      0.066880000000     0.952440000000     0.650840000000     0.0502203  
H255     H      0.083450000000     0.998960000000     0.643200000000     0.0512468  
H256     H      0.164910000000     0.967280000000     0.626970000000     0.0518584  
H257     H      0.352590000000     0.072170000000     0.523470000000     0.0512498  
H258     H      0.368640000000     0.153670000000     0.492310000000     0.0518944  
H259     H      0.361370000000     0.136970000000     0.445320000000     0.0509142  
H260     H      0.345100000000     0.055670000000     0.476830000000     0.0502636  
H261     H      0.362890000000     0.242190000000     0.580890000000     0.0519276  
H262     H      0.379500000000     0.210980000000     0.662300000000     0.0513125  
H263     H      0.387090000000     0.257600000000     0.678780000000     0.0502144  
H264     H      0.370260000000     0.289160000000     0.597570000000     0.0509269  
H265     H      0.268520000000     0.154070000000     0.609000000000     0.0502603  
H266     H      0.300490000000     0.072710000000     0.624760000000     0.0508959  
H267     H      0.253600000000     0.055920000000     0.632100000000     0.0518609  
H268     H      0.221990000000     0.137490000000     0.616560000000     0.0512715  
H269     H      0.478700000000     0.102610000000     0.678340000000     0.0518932  
H270     H      0.509990000000     0.118490000000     0.596780000000     0.0512497  
H271     H      0.463360000000     0.125900000000     0.580260000000     0.0502372  
H272     H      0.431730000000     0.109800000000     0.661630000000     0.050885   
H273     H      0.664960000000     0.992450000000     0.626600000000     0.0518967  
H274     H      0.583530000000     0.961200000000     0.642820000000     0.0512557  
H275     H      0.566920000000     0.007820000000     0.650430000000     0.0502746  
H276     H      0.648150000000     0.039420000000     0.633990000000     0.0509225  
H277     H      0.594920000000     0.202670000000     0.678520000000     0.0502181  
H278     H      0.611380000000     0.170590000000     0.597290000000     0.0508742  
H279     H      0.618710000000     0.217450000000     0.580450000000     0.0518885  
H280     H      0.602470000000     0.249180000000     0.661870000000     0.0512858  
H281     H      0.753400000000     0.055910000000     0.876640000000     0.0519096  
H282     H      0.721770000000     0.137350000000     0.893130000000     0.0512732  
H283     H      0.768300000000     0.153870000000     0.900850000000     0.0502329  
H284     H      0.800280000000     0.072630000000     0.884140000000     0.0508939  
H285     H      0.583320000000     0.998830000000     0.865620000000     0.0512195  
H286     H      0.664800000000     0.967280000000     0.881740000000     0.0518551  
H287     H      0.648080000000     0.920370000000     0.874370000000     0.0509069  
H288     H      0.566800000000     0.952260000000     0.858020000000     0.0502713  
H289     H      0.665300000000     0.083750000000     0.781910000000     0.0502203  
H290     H      0.584040000000     0.100430000000     0.813750000000     0.0508729  
H291     H      0.567320000000     0.107940000000     0.766850000000     0.0519295  
H292     H      0.648780000000     0.091490000000     0.735350000000     0.0512969  
H293     H      0.637290000000     0.055440000000     0.976730000000     0.0502327  
H294     H      0.620390000000     0.136640000000     0.945110000000     0.0509071  
H295     H      0.613110000000     0.153430000000     0.992090000000     0.0519307  
H296     H      0.629790000000     0.072030000000     0.023370000000     0.0512678  
H297     H      0.868440000000     0.653400000000     0.991990000000     0.0518985  
H298     H      0.852520000000     0.571960000000     0.023380000000     0.0512504  
H299     H      0.844930000000     0.555350000000     0.976790000000     0.0502383  
H300     H      0.861080000000     0.636580000000     0.945050000000     0.0509167  
H301     H      0.863440000000     0.742170000000     0.080680000000     0.0519307  
H302     H      0.879270000000     0.710790000000     0.162180000000     0.0512859  
H303     H      0.887040000000     0.757350000000     0.178760000000     0.0502265  
H304     H      0.870990000000     0.789080000000     0.097450000000     0.0508828  
H305     H      0.800280000000     0.572810000000     0.124490000000     0.0509019  
H306     H      0.768350000000     0.654080000000     0.108160000000     0.0502408  
H307     H      0.721780000000     0.637500000000     0.115540000000     0.0512598  
H308     H      0.753370000000     0.556030000000     0.131640000000     0.0518515  
H309     H      0.363520000000     0.217460000000     0.080530000000     0.051862   
H310     H      0.379610000000     0.249080000000     0.161970000000     0.0512465  
H311     H      0.387110000000     0.202510000000     0.178610000000     0.0502807  
H312     H      0.370800000000     0.170550000000     0.097370000000     0.0509337  
H313     H      0.361210000000     0.323020000000     0.944850000000     0.0508875  
H314     H      0.344240000000     0.404190000000     0.976860000000     0.0502303  
H315     H      0.351970000000     0.387610000000     0.023400000000     0.0512873  
H316     H      0.368720000000     0.306250000000     0.991730000000     0.0519055  
H317     H      0.463410000000     0.333720000000     0.079880000000     0.0502045  
H318     H      0.431500000000     0.350650000000     0.161070000000     0.0508737  
H319     H      0.478390000000     0.358080000000     0.177820000000     0.051915   
H320     H      0.509950000000     0.341370000000     0.096430000000     0.0512712  
H321     H      0.978640000000     0.357700000000     0.330810000000     0.0519527  
H322     H      0.009860000000     0.341830000000     0.412370000000     0.0512102  
H323     H      0.963260000000     0.334230000000     0.428840000000     0.0502353  
H324     H      0.931690000000     0.350320000000     0.347470000000     0.0508874  
H325     H      0.148120000000     0.420530000000     0.374770000000     0.0508426  
H326     H      0.066840000000     0.452530000000     0.358600000000     0.0501847  
H327     H      0.083470000000     0.499080000000     0.366030000000     0.0513079  
H328     H      0.164940000000     0.467430000000     0.381970000000     0.0518997  
H329     H      0.111090000000     0.289470000000     0.411890000000     0.0508942  
H330     H      0.095060000000     0.257540000000     0.330580000000     0.0502645  
H331     H      0.102590000000     0.210980000000     0.347200000000     0.0512391  
H332     H      0.118400000000     0.242560000000     0.428710000000     0.0518394  
H333     H      0.148620000000     0.591070000000     0.235340000000     0.0512897  
H334     H      0.067330000000     0.607960000000     0.267050000000     0.0518659  
H335     H      0.084190000000     0.600580000000     0.313930000000     0.0509097  
H336     H      0.165270000000     0.583470000000     0.281870000000     0.0502409  
H337     H      0.978410000000     0.602440000000     0.178290000000     0.051884   
H338     H      0.009890000000     0.618380000000     0.096810000000     0.0511673  
H339     H      0.963300000000     0.625810000000     0.080190000000     0.0502926  
H340     H      0.931470000000     0.609650000000     0.161470000000     0.0508959  
H341     H      0.129830000000     0.887350000000     0.023850000000     0.0512824  
H342     H      0.114080000000     0.805840000000     0.992320000000     0.0519012  
H343     H      0.121290000000     0.822610000000     0.945400000000     0.0508679  
H344     H      0.137270000000     0.903930000000     0.977270000000     0.0502489  
H345     H      0.119210000000     0.717200000000     0.080980000000     0.0518885  
H346     H      0.102800000000     0.748820000000     0.162420000000     0.0512406  
H347     H      0.094940000000     0.702300000000     0.178920000000     0.0502357  
H348     H      0.111580000000     0.670340000000     0.097680000000     0.0508928  
H349     H      0.181940000000     0.886720000000     0.125160000000     0.0508905  
H350     H      0.214060000000     0.805510000000     0.108590000000     0.050225   
H351     H      0.260580000000     0.822180000000     0.116070000000     0.0512788  
H352     H      0.228800000000     0.903590000000     0.132410000000     0.0518841  
H353     H      0.050690000000     0.850080000000     0.161660000000     0.0509032  
H354     H      0.019170000000     0.833410000000     0.080370000000     0.0503008  
H355     H      0.972510000000     0.840920000000     0.096880000000     0.0512333  
H356     H      0.003700000000     0.857370000000     0.178380000000     0.0518884  
H357     H      0.222000000000     0.322030000000     0.115660000000     0.0512901  
H358     H      0.253130000000     0.403440000000     0.132370000000     0.0519299  
H359     H      0.300120000000     0.386730000000     0.124930000000     0.0509336  
H360     H      0.268650000000     0.305520000000     0.108000000000     0.0502396  
H361     H      0.083080000000     0.460840000000     0.143560000000     0.0512488  
H362     H      0.164400000000     0.492030000000     0.126660000000     0.0519307  
H363     H      0.147630000000     0.539030000000     0.133940000000     0.0509392  
H364     H      0.066510000000     0.507500000000     0.151070000000     0.05024    
H365     H      0.165200000000     0.375660000000     0.226990000000     0.0502311  
H366     H      0.083900000000     0.359480000000     0.195370000000     0.0508699  
H367     H      0.067190000000     0.352210000000     0.242330000000     0.0519023  
H368     H      0.148690000000     0.368160000000     0.273610000000     0.0512709  
H369     H      0.102350000000     0.248600000000     0.846910000000     0.0512529  
H370     H      0.118650000000     0.217390000000     0.928380000000     0.0518886  
H371     H      0.111270000000     0.170420000000     0.911700000000     0.0509104  
H372     H      0.094740000000     0.201980000000     0.830420000000     0.0502385  
H373     H      0.113270000000     0.305940000000     0.016920000000     0.0518855  
H374     H      0.128950000000     0.387490000000     0.985690000000     0.0512278  
H375     H      0.136520000000     0.404020000000     0.032320000000     0.050248   
H376     H      0.120620000000     0.322680000000     0.063890000000     0.0508841  
H377     H      0.018290000000     0.333560000000     0.928770000000     0.0502501  
H378     H      0.050060000000     0.349670000000     0.847460000000     0.0508736  
H379     H      0.003120000000     0.356790000000     0.830650000000     0.0519041  
H380     H      0.971680000000     0.340910000000     0.912150000000     0.051291   
H381     H      0.181160000000     0.386920000000     0.884450000000     0.0508502  
H382     H      0.213200000000     0.305580000000     0.900240000000     0.0502038  
H383     H      0.259720000000     0.322200000000     0.892640000000     0.0512788  
H384     H      0.228030000000     0.403730000000     0.877080000000     0.051882   
In1      In     0.115780000000     0.317730000000     0.916570000000     2.41814    
In2      In     0.152810000000     0.391700000000     0.129630000000     2.41862    
In3      In     0.116590000000     0.817620000000     0.092730000000     2.41898    
In4      In     0.078790000000     0.604960000000     0.166610000000     2.41931    
In5      In     0.078980000000     0.355020000000     0.342700000000     2.41821    
In6      In     0.366020000000     0.317880000000     0.092170000000     2.41898    
In7      In     0.865840000000     0.641800000000     0.092370000000     2.4188     
In8      In     0.652990000000     0.067680000000     0.879280000000     2.4189     
In9      In     0.579050000000     0.105230000000     0.666440000000     2.41826    
In10     In     0.365910000000     0.141850000000     0.592640000000     2.41831    
In11     In     0.079100000000     0.855030000000     0.666830000000     2.41903    
In12     In     0.653340000000     0.892100000000     0.629160000000     2.41893    
In13     In     0.579120000000     0.854810000000     0.841990000000     2.41933    
In14     In     0.903370000000     0.854650000000     0.166570000000     2.41858    
In15     In     0.579000000000     0.605150000000     0.342000000000     2.41825    
In16     In     0.652920000000     0.392050000000     0.379170000000     2.4181     
In17     In     0.652960000000     0.567770000000     0.128870000000     2.41864    
In18     In     0.578790000000     0.355150000000     0.166180000000     2.41859    
In19     In     0.829530000000     0.891980000000     0.379740000000     2.41877    
In20     In     0.403530000000     0.854970000000     0.342290000000     2.41891    
In21     In     0.616610000000     0.818020000000     0.416070000000     2.41934    
In22     In     0.402880000000     0.354940000000     0.666350000000     2.41919    
In23     In     0.615930000000     0.317890000000     0.592030000000     2.41908    
In24     In     0.115810000000     0.641860000000     0.592470000000     2.41899    
In25     In     0.153240000000     0.567870000000     0.379340000000     2.4192     
In26     In     0.365900000000     0.642270000000     0.416220000000     2.4187     
In27     In     0.329010000000     0.567990000000     0.629040000000     2.41892    
In28     In     0.153230000000     0.891720000000     0.879810000000     2.41887    
In29     In     0.328460000000     0.392010000000     0.879400000000     2.41893    
In30     In     0.366390000000     0.817780000000     0.916430000000     2.41908    
In31     In     0.402910000000     0.604550000000     0.842130000000     2.41856    
In32     In     0.865700000000     0.141590000000     0.916810000000     2.41897    
In33     In     0.615700000000     0.641800000000     0.916050000000     2.41927    
In34     In     0.866460000000     0.817650000000     0.592510000000     2.41904    
In35     In     0.902990000000     0.604590000000     0.666490000000     2.41884    
In36     In     0.828870000000     0.567500000000     0.879400000000     2.41838    
In37     In     0.902740000000     0.354200000000     0.842370000000     2.41887    
In38     In     0.865970000000     0.318010000000     0.416380000000     2.41861    
In39     In     0.828640000000     0.391810000000     0.629610000000     2.41892    
In40     In     0.329230000000     0.892080000000     0.129510000000     2.41836    
In41     In     0.903360000000     0.104740000000     0.342640000000     2.41864    
In42     In     0.078860000000     0.104650000000     0.842800000000     2.41929    
In43     In     0.116010000000     0.142130000000     0.416980000000     2.41854    
In44     In     0.153190000000     0.067710000000     0.629700000000     2.41877    
In45     In     0.828970000000     0.067650000000     0.129780000000     2.4184     
In46     In     0.615990000000     0.141830000000     0.092450000000     2.41815    
In47     In     0.329140000000     0.068080000000     0.379470000000     2.41865    
In48     In     0.403060000000     0.105020000000     0.166480000000     2.41832    
O1       O      0.116060000000     0.271270000000     0.924180000000    -0.472191   
O2       O      0.112580000000     0.285510000000     0.883010000000    -0.494199   
O3       O      0.144220000000     0.349120000000     0.896020000000    -0.47623    
O4       O      0.087150000000     0.338210000000     0.885220000000    -0.47595    
O5       O      0.115720000000     0.310140000000     0.963040000000    -0.472181   
O6       O      0.069690000000     0.322540000000     0.922040000000    -0.497843   
O7       O      0.161870000000     0.312320000000     0.911600000000    -0.497796   
O8       O      0.118890000000     0.351320000000     0.948780000000    -0.494058   
O9       O      0.185040000000     0.358130000000     0.126090000000    -0.494157   
O10      O      0.199270000000     0.399280000000     0.129820000000    -0.472119   
O11      O      0.132230000000     0.360390000000     0.101040000000    -0.476208   
O12      O      0.121570000000     0.371110000000     0.158230000000    -0.476228   
O13      O      0.160330000000     0.438170000000     0.129390000000    -0.472013   
O14      O      0.158330000000     0.386870000000     0.175690000000    -0.497931   
O15      O      0.147870000000     0.397180000000     0.083590000000    -0.498161   
O16      O      0.119210000000     0.423890000000     0.133150000000    -0.494179   
O17      O      0.113260000000     0.785550000000     0.126300000000    -0.494403   
O18      O      0.116790000000     0.771120000000     0.085140000000    -0.472268   
O19      O      0.087890000000     0.838300000000     0.124000000000    -0.476077   
O20      O      0.145040000000     0.848940000000     0.113430000000    -0.476217   
O21      O      0.116600000000     0.810000000000     0.046230000000    -0.472175   
O22      O      0.162680000000     0.812200000000     0.097520000000    -0.498011   
O23      O      0.070530000000     0.822400000000     0.087210000000    -0.498104   
O24      O      0.119750000000     0.851190000000     0.060630000000    -0.494197   
O25      O      0.112420000000     0.601480000000     0.198640000000    -0.494531   
O26      O      0.071320000000     0.605300000000     0.213120000000    -0.472573   
O27      O      0.099580000000     0.633380000000     0.135350000000    -0.475957   
O28      O      0.109970000000     0.576230000000     0.145830000000    -0.476024   
O29      O      0.032300000000     0.604950000000     0.174170000000    -0.472567   
O30      O      0.073320000000     0.558880000000     0.161970000000    -0.497938   
O31      O      0.083610000000     0.651030000000     0.172050000000    -0.498016   
O32      O      0.046700000000     0.608280000000     0.133010000000    -0.494465   
O33      O      0.046780000000     0.351910000000     0.376250000000    -0.494161   
O34      O      0.032520000000     0.355210000000     0.335060000000    -0.47218    
O35      O      0.110340000000     0.383550000000     0.363230000000    -0.476149   
O36      O      0.099510000000     0.326480000000     0.374100000000    -0.476064   
O37      O      0.071380000000     0.354810000000     0.296220000000    -0.471968   
O38      O      0.083870000000     0.308920000000     0.337290000000    -0.497873   
O39      O      0.073550000000     0.401120000000     0.347520000000    -0.498014   
O40      O      0.112550000000     0.358110000000     0.310510000000    -0.494146   
O41      O      0.369400000000     0.285830000000     0.125770000000    -0.49432    
O42      O      0.366010000000     0.271370000000     0.084610000000    -0.472114   
O43      O      0.337330000000     0.349100000000     0.112960000000    -0.47586    
O44      O      0.394510000000     0.338690000000     0.123390000000    -0.476214   
O45      O      0.366210000000     0.310330000000     0.045650000000    -0.472143   
O46      O      0.412080000000     0.322630000000     0.086700000000    -0.498113   
O47      O      0.319970000000     0.312380000000     0.096930000000    -0.497945   
O48      O      0.362490000000     0.351470000000     0.060120000000    -0.494275   
O49      O      0.869010000000     0.673960000000     0.125990000000    -0.494049   
O50      O      0.865780000000     0.688270000000     0.084810000000    -0.47222    
O51      O      0.894420000000     0.621210000000     0.123700000000    -0.476067   
O52      O      0.837290000000     0.610530000000     0.112940000000    -0.476221   
O53      O      0.862720000000     0.608160000000     0.060220000000    -0.493993   
O54      O      0.819750000000     0.647290000000     0.097140000000    -0.498095   
O55      O      0.911920000000     0.636930000000     0.086930000000    -0.498054   
O56      O      0.865920000000     0.649320000000     0.045890000000    -0.47223    
O57      O      0.685050000000     0.101230000000     0.882730000000    -0.494304   
O58      O      0.699490000000     0.060070000000     0.879100000000    -0.472141   
O59      O      0.632250000000     0.098940000000     0.907960000000    -0.476202   
O60      O      0.621720000000     0.088460000000     0.850780000000    -0.476172   
O61      O      0.660610000000     0.021180000000     0.879280000000    -0.472282   
O62      O      0.658470000000     0.072530000000     0.833210000000    -0.497909   
O63      O      0.648240000000     0.062200000000     0.925350000000    -0.498068   
O64      O      0.619440000000     0.035610000000     0.875910000000    -0.494328   
O65      O      0.612640000000     0.101840000000     0.698550000000    -0.493885   
O66      O      0.571480000000     0.105470000000     0.712940000000    -0.472083   
O67      O      0.599660000000     0.133670000000     0.635080000000    -0.476134   
O68      O      0.610400000000     0.076580000000     0.645770000000    -0.475762   
O69      O      0.532580000000     0.105150000000     0.674100000000    -0.472256   
O70      O      0.573650000000     0.059160000000     0.661600000000    -0.497839   
O71      O      0.583820000000     0.151320000000     0.671830000000    -0.49803    
O72      O      0.546890000000     0.108460000000     0.632910000000    -0.494332   
O73      O      0.366050000000     0.149460000000     0.546180000000    -0.472292   
O74      O      0.362700000000     0.108290000000     0.560420000000    -0.494295   
O75      O      0.337460000000     0.110480000000     0.613210000000    -0.476056   
O76      O      0.411990000000     0.137010000000     0.587110000000    -0.497769   
O77      O      0.365570000000     0.188320000000     0.585060000000    -0.471895   
O78      O      0.394570000000     0.121330000000     0.623940000000    -0.475948   
O79      O      0.319840000000     0.147300000000     0.597620000000    -0.497857   
O80      O      0.369210000000     0.174050000000     0.626220000000    -0.493919   
O81      O      0.047050000000     0.851710000000     0.633220000000    -0.494528   
O82      O      0.032600000000     0.855270000000     0.674360000000    -0.472335   
O83      O      0.099780000000     0.826340000000     0.635540000000    -0.475982   
O84      O      0.110410000000     0.883470000000     0.646160000000    -0.476104   
O85      O      0.071510000000     0.855010000000     0.713330000000    -0.472221   
O86      O      0.073670000000     0.901110000000     0.662050000000    -0.498115   
O87      O      0.083810000000     0.808940000000     0.672250000000    -0.497951   
O88      O      0.112690000000     0.858170000000     0.698940000000    -0.494147   
O89      O      0.619730000000     0.924290000000     0.632560000000    -0.494354   
O90      O      0.660870000000     0.938570000000     0.629060000000    -0.4723     
O91      O      0.622010000000     0.871480000000     0.657650000000    -0.476025   
O92      O      0.632740000000     0.860850000000     0.600520000000    -0.475857   
O93      O      0.699810000000     0.899570000000     0.629470000000    -0.472325   
O94      O      0.648650000000     0.897550000000     0.583090000000    -0.497926   
O95      O      0.658720000000     0.887220000000     0.675230000000    -0.497977   
O96      O      0.685490000000     0.858450000000     0.625750000000    -0.494172   
O97      O      0.547030000000     0.851660000000     0.875630000000    -0.494396   
O98      O      0.532640000000     0.854960000000     0.834480000000    -0.472245   
O99      O      0.610390000000     0.883350000000     0.862650000000    -0.476026   
O100     O      0.599770000000     0.826190000000     0.873230000000    -0.476227   
O101     O      0.571570000000     0.854780000000     0.795510000000    -0.472463   
O102     O      0.583870000000     0.808720000000     0.836490000000    -0.498252   
O103     O      0.573630000000     0.900900000000     0.846840000000    -0.497975   
O104     O      0.612730000000     0.857970000000     0.809860000000    -0.494293   
O105     O      0.910980000000     0.854420000000     0.213040000000    -0.47215    
O106     O      0.869830000000     0.858200000000     0.198760000000    -0.494255   
O107     O      0.882760000000     0.826140000000     0.135200000000    -0.476009   
O108     O      0.872010000000     0.883240000000     0.146000000000    -0.47598    
O109     O      0.949840000000     0.854800000000     0.174170000000    -0.472257   
O110     O      0.908780000000     0.900700000000     0.161720000000    -0.497962   
O111     O      0.898440000000     0.808600000000     0.171980000000    -0.497974   
O112     O      0.935560000000     0.851180000000     0.133010000000    -0.494192   
O113     O      0.612560000000     0.601530000000     0.309840000000    -0.494213   
O114     O      0.571430000000     0.605380000000     0.295520000000    -0.472303   
O115     O      0.610250000000     0.576520000000     0.362670000000    -0.476002   
O116     O      0.599730000000     0.633680000000     0.373270000000    -0.476107   
O117     O      0.532510000000     0.605030000000     0.334470000000    -0.472008   
O118     O      0.583880000000     0.651200000000     0.336560000000    -0.498029   
O119     O      0.573510000000     0.559100000000     0.346820000000    -0.497789   
O120     O      0.546860000000     0.608720000000     0.375610000000    -0.494087   
O121     O      0.685130000000     0.358450000000     0.382350000000    -0.493995   
O122     O      0.699380000000     0.399620000000     0.379080000000    -0.472078   
O123     O      0.621600000000     0.371520000000     0.350580000000    -0.476026   
O124     O      0.632380000000     0.360720000000     0.407690000000    -0.476234   
O125     O      0.660490000000     0.438520000000     0.379350000000    -0.471907   
O126     O      0.648010000000     0.397500000000     0.425260000000    -0.498012   
O127     O      0.658380000000     0.387200000000     0.333080000000    -0.497887   
O128     O      0.619330000000     0.424270000000     0.375920000000    -0.494051   
O129     O      0.619360000000     0.535750000000     0.132210000000    -0.494298   
O130     O      0.660500000000     0.521250000000     0.128640000000    -0.472192   
O131     O      0.632190000000     0.599030000000     0.100360000000    -0.476204   
O132     O      0.621720000000     0.588570000000     0.157520000000    -0.476019   
O133     O      0.699470000000     0.560170000000     0.129000000000    -0.472118   
O134     O      0.658400000000     0.572470000000     0.174960000000    -0.498023   
O135     O      0.648260000000     0.562340000000     0.082780000000    -0.498311   
O136     O      0.685020000000     0.601340000000     0.125630000000    -0.494299   
O137     O      0.612370000000     0.358450000000     0.198290000000    -0.494364   
O138     O      0.571220000000     0.355160000000     0.212680000000    -0.472405   
O139     O      0.610080000000     0.383560000000     0.145420000000    -0.475926   
O140     O      0.599520000000     0.326400000000     0.134960000000    -0.475743   
O141     O      0.532300000000     0.355460000000     0.173720000000    -0.472382   
O142     O      0.583530000000     0.309080000000     0.171700000000    -0.498062   
O143     O      0.573370000000     0.401230000000     0.161340000000    -0.498057   
O144     O      0.546720000000     0.351750000000     0.132580000000    -0.494304   
O145     O      0.797460000000     0.858420000000     0.382950000000    -0.494293   
O146     O      0.783020000000     0.899590000000     0.379570000000    -0.471981   
O147     O      0.850270000000     0.860670000000     0.408220000000    -0.476054   
O148     O      0.860790000000     0.871230000000     0.351080000000    -0.476151   
O149     O      0.821950000000     0.938490000000     0.380070000000    -0.47214    
O150     O      0.824080000000     0.887280000000     0.333660000000    -0.49811    
O151     O      0.834230000000     0.897360000000     0.425840000000    -0.498091   
O152     O      0.863100000000     0.924030000000     0.376400000000    -0.49423    
O153     O      0.369930000000     0.858410000000     0.310230000000    -0.494525   
O154     O      0.411050000000     0.854680000000     0.295790000000    -0.472436   
O155     O      0.372260000000     0.883630000000     0.363030000000    -0.476084   
O156     O      0.382870000000     0.826530000000     0.373620000000    -0.476098   
O157     O      0.450010000000     0.855020000000     0.334640000000    -0.472263   
O158     O      0.398680000000     0.808900000000     0.336850000000    -0.498031   
O159     O      0.408940000000     0.901050000000     0.347050000000    -0.497816   
O160     O      0.435700000000     0.851680000000     0.375830000000    -0.494167   
O161     O      0.613350000000     0.785870000000     0.382450000000    -0.494363   
O162     O      0.616740000000     0.771550000000     0.423600000000    -0.472451   
O163     O      0.645170000000     0.849280000000     0.395490000000    -0.476213   
O164     O      0.588000000000     0.838630000000     0.384780000000    -0.476005   
O165     O      0.616480000000     0.810470000000     0.462540000000    -0.472379   
O166     O      0.570550000000     0.822930000000     0.421590000000    -0.498113   
O167     O      0.662690000000     0.812500000000     0.411270000000    -0.498189   
O168     O      0.619830000000     0.851620000000     0.448240000000    -0.494447   
O169     O      0.434980000000     0.351340000000     0.632730000000    -0.494454   
O170     O      0.449370000000     0.355170000000     0.673840000000    -0.472384   
O171     O      0.371680000000     0.383530000000     0.645560000000    -0.476109   
O172     O      0.382130000000     0.326320000000     0.635180000000    -0.475962   
O173     O      0.410340000000     0.354740000000     0.712860000000    -0.472317   
O174     O      0.398170000000     0.308890000000     0.671860000000    -0.498098   
O175     O      0.408340000000     0.400980000000     0.661560000000    -0.498192   
O176     O      0.369240000000     0.358550000000     0.698440000000    -0.494314   
O177     O      0.619130000000     0.351480000000     0.559950000000    -0.494388   
O178     O      0.615920000000     0.310320000000     0.545520000000    -0.472474   
O179     O      0.644390000000     0.349160000000     0.612790000000    -0.476016   
O180     O      0.587280000000     0.338670000000     0.623270000000    -0.476181   
O181     O      0.616160000000     0.271380000000     0.584500000000    -0.472265   
O182     O      0.569840000000     0.322560000000     0.586610000000    -0.49808    
O183     O      0.662020000000     0.312450000000     0.596790000000    -0.497936   
O184     O      0.612670000000     0.285870000000     0.625650000000    -0.494393   
O185     O      0.119420000000     0.608290000000     0.560290000000    -0.494541   
O186     O      0.115510000000     0.649410000000     0.545990000000    -0.472253   
O187     O      0.087320000000     0.621170000000     0.623750000000    -0.476104   
O188     O      0.144490000000     0.610600000000     0.613060000000    -0.475989   
O189     O      0.112360000000     0.674000000000     0.626110000000    -0.494178   
O190     O      0.161850000000     0.647360000000     0.597240000000    -0.498147   
O191     O      0.069760000000     0.636990000000     0.587030000000    -0.497931   
O192     O      0.115940000000     0.688340000000     0.584970000000    -0.472183   
O193     O      0.185230000000     0.601500000000     0.382650000000    -0.494467   
O194     O      0.199770000000     0.560370000000     0.379070000000    -0.472186   
O195     O      0.132420000000     0.599090000000     0.408000000000    -0.476069   
O196     O      0.121950000000     0.588650000000     0.350870000000    -0.4761     
O197     O      0.160830000000     0.521350000000     0.379440000000    -0.472164   
O198     O      0.158580000000     0.572500000000     0.333240000000    -0.498091   
O199     O      0.148630000000     0.562450000000     0.425420000000    -0.498216   
O200     O      0.119670000000     0.535820000000     0.376090000000    -0.494491   
O201     O      0.369170000000     0.674360000000     0.382660000000    -0.494308   
O202     O      0.365760000000     0.688770000000     0.423840000000    -0.472132   
O203     O      0.337450000000     0.610970000000     0.395510000000    -0.476236   
O204     O      0.394560000000     0.621600000000     0.384910000000    -0.476058   
O205     O      0.365860000000     0.649850000000     0.462730000000    -0.472168   
O206     O      0.411980000000     0.637510000000     0.421670000000    -0.49789    
O207     O      0.319800000000     0.647690000000     0.411450000000    -0.497831   
O208     O      0.362790000000     0.608670000000     0.448290000000    -0.494208   
O209     O      0.296770000000     0.601560000000     0.625860000000    -0.494367   
O210     O      0.282560000000     0.560390000000     0.629210000000    -0.472318   
O211     O      0.349520000000     0.599360000000     0.600540000000    -0.476222   
O212     O      0.360320000000     0.588480000000     0.657660000000    -0.476328   
O213     O      0.321460000000     0.521530000000     0.628760000000    -0.472217   
O214     O      0.323510000000     0.572840000000     0.675110000000    -0.49829    
O215     O      0.333920000000     0.562570000000     0.582940000000    -0.497798   
O216     O      0.362600000000     0.535780000000     0.632310000000    -0.494233   
O217     O      0.185450000000     0.858140000000     0.882980000000    -0.494239   
O218     O      0.199680000000     0.899310000000     0.879600000000    -0.472185   
O219     O      0.121920000000     0.871150000000     0.851240000000    -0.476164   
O220     O      0.132740000000     0.860380000000     0.908360000000    -0.476116   
O221     O      0.160710000000     0.938190000000     0.880040000000    -0.472262   
O222     O      0.148430000000     0.897160000000     0.925910000000    -0.497817   
O223     O      0.158660000000     0.886890000000     0.833720000000    -0.498104   
O224     O      0.119570000000     0.923870000000     0.876630000000    -0.494085   
O225     O      0.296420000000     0.358410000000     0.882550000000    -0.494283   
O226     O      0.281950000000     0.399590000000     0.879440000000    -0.472372   
O227     O      0.349230000000     0.360730000000     0.907890000000    -0.476102   
O228     O      0.359720000000     0.371230000000     0.850760000000    -0.47608    
O229     O      0.320920000000     0.438530000000     0.879520000000    -0.472293   
O230     O      0.323070000000     0.387370000000     0.833300000000    -0.498131   
O231     O      0.333180000000     0.397420000000     0.925500000000    -0.498079   
O232     O      0.362070000000     0.424010000000     0.876170000000    -0.494465   
O233     O      0.362900000000     0.851410000000     0.948570000000    -0.494293   
O234     O      0.366720000000     0.810300000000     0.962920000000    -0.472369   
O235     O      0.337730000000     0.849040000000     0.895830000000    -0.476002   
O236     O      0.394860000000     0.838410000000     0.885090000000    -0.476195   
O237     O      0.366250000000     0.771300000000     0.923970000000    -0.47227    
O238     O      0.412460000000     0.822580000000     0.921780000000    -0.498024   
O239     O      0.320340000000     0.812320000000     0.911720000000    -0.498038   
O240     O      0.369760000000     0.785610000000     0.882820000000    -0.494299   
O241     O      0.435020000000     0.607850000000     0.875700000000    -0.494261   
O242     O      0.449400000000     0.604210000000     0.834540000000    -0.472133   
O243     O      0.371510000000     0.576180000000     0.862760000000    -0.476107   
O244     O      0.382330000000     0.633260000000     0.873460000000    -0.476153   
O245     O      0.410550000000     0.604560000000     0.795640000000    -0.47215    
O246     O      0.398200000000     0.650640000000     0.836700000000    -0.497932   
O247     O      0.408260000000     0.558460000000     0.846990000000    -0.498056   
O248     O      0.369360000000     0.601430000000     0.809970000000    -0.494245   
O249     O      0.862450000000     0.108040000000     0.948910000000    -0.494378   
O250     O      0.865750000000     0.149220000000     0.963310000000    -0.472139   
O251     O      0.894390000000     0.120800000000     0.885600000000    -0.476015   
O252     O      0.837240000000     0.110310000000     0.896060000000    -0.476005   
O253     O      0.865420000000     0.188110000000     0.924300000000    -0.472142   
O254     O      0.819620000000     0.147040000000     0.912020000000    -0.498039   
O255     O      0.911780000000     0.136910000000     0.922290000000    -0.497913   
O256     O      0.869020000000     0.173590000000     0.883170000000    -0.494338   
O257     O      0.612380000000     0.673870000000     0.882450000000    -0.494204   
O258     O      0.615840000000     0.688300000000     0.923610000000    -0.472333   
O259     O      0.587220000000     0.621050000000     0.884780000000    -0.47629    
O260     O      0.644380000000     0.610510000000     0.895330000000    -0.475948   
O261     O      0.619170000000     0.608230000000     0.948120000000    -0.494465   
O262     O      0.661770000000     0.647210000000     0.911350000000    -0.498066   
O263     O      0.569640000000     0.637050000000     0.921490000000    -0.498288   
O264     O      0.615410000000     0.649370000000     0.962550000000    -0.472375   
O265     O      0.863110000000     0.851260000000     0.560470000000    -0.494418   
O266     O      0.866800000000     0.810130000000     0.545990000000    -0.472229   
O267     O      0.894890000000     0.838350000000     0.623860000000    -0.476096   
O268     O      0.837790000000     0.848940000000     0.613220000000    -0.476074   
O269     O      0.866360000000     0.771150000000     0.584890000000    -0.472265   
O270     O      0.820380000000     0.812280000000     0.597130000000    -0.49817    
O271     O      0.912540000000     0.822390000000     0.587160000000    -0.497959   
O272     O      0.869710000000     0.785540000000     0.626070000000    -0.494415   
O273     O      0.869400000000     0.601490000000     0.698650000000    -0.494287   
O274     O      0.910570000000     0.604620000000     0.712970000000    -0.472284   
O275     O      0.871640000000     0.576090000000     0.645900000000    -0.476064   
O276     O      0.882440000000     0.633220000000     0.635190000000    -0.47622    
O277     O      0.949460000000     0.604440000000     0.674060000000    -0.472359   
O278     O      0.898180000000     0.650680000000     0.672000000000    -0.497957   
O279     O      0.908410000000     0.558490000000     0.661640000000    -0.497897   
O280     O      0.935130000000     0.607700000000     0.632890000000    -0.494363   
O281     O      0.862430000000     0.535260000000     0.875950000000    -0.494216   
O282     O      0.821280000000     0.521040000000     0.879630000000    -0.472172   
O283     O      0.849460000000     0.598820000000     0.907970000000    -0.475921   
O284     O      0.860210000000     0.588040000000     0.850870000000    -0.475984   
O285     O      0.782400000000     0.560000000000     0.879090000000    -0.47208    
O286     O      0.823450000000     0.572360000000     0.833330000000    -0.497632   
O287     O      0.833680000000     0.562100000000     0.925470000000    -0.497879   
O288     O      0.796690000000     0.601130000000     0.882800000000    -0.494066   
O289     O      0.869130000000     0.357630000000     0.810300000000    -0.494244   
O290     O      0.910260000000     0.353910000000     0.795860000000    -0.47229    
O291     O      0.871500000000     0.382930000000     0.863080000000    -0.47597    
O292     O      0.882030000000     0.325790000000     0.873680000000    -0.476207   
O293     O      0.949230000000     0.354230000000     0.834780000000    -0.472085   
O294     O      0.897990000000     0.308110000000     0.837000000000    -0.498131   
O295     O      0.908220000000     0.400260000000     0.847090000000    -0.498038   
O296     O      0.934850000000     0.350950000000     0.875960000000    -0.494159   
O297     O      0.869590000000     0.285810000000     0.382820000000    -0.494371   
O298     O      0.865790000000     0.271540000000     0.423950000000    -0.472319   
O299     O      0.894550000000     0.338620000000     0.385120000000    -0.476113   
O300     O      0.837370000000     0.349320000000     0.395740000000    -0.476014   
O301     O      0.866180000000     0.310430000000     0.462850000000    -0.472107   
O302     O      0.819940000000     0.312530000000     0.411410000000    -0.498043   
O303     O      0.912000000000     0.322930000000     0.421930000000    -0.498054   
O304     O      0.862350000000     0.351570000000     0.448580000000    -0.494182   
O305     O      0.862240000000     0.423830000000     0.632940000000    -0.494449   
O306     O      0.821090000000     0.438330000000     0.629610000000    -0.472175   
O307     O      0.849410000000     0.360600000000     0.600910000000    -0.476129   
O308     O      0.859880000000     0.370950000000     0.658080000000    -0.476002   
O309     O      0.796590000000     0.358260000000     0.626120000000    -0.494331   
O310     O      0.823200000000     0.387020000000     0.675690000000    -0.497786   
O311     O      0.833330000000     0.397320000000     0.583540000000    -0.497999   
O312     O      0.782130000000     0.399410000000     0.629830000000    -0.47216    
O313     O      0.297250000000     0.858430000000     0.126220000000    -0.49414    
O314     O      0.282710000000     0.899570000000     0.129760000000    -0.472117   
O315     O      0.360560000000     0.871370000000     0.158000000000    -0.475989   
O316     O      0.350040000000     0.860820000000     0.100870000000    -0.475795   
O317     O      0.321580000000     0.938580000000     0.129400000000    -0.472373   
O318     O      0.333890000000     0.897470000000     0.083410000000    -0.497766   
O319     O      0.323860000000     0.887390000000     0.175600000000    -0.498068   
O320     O      0.362760000000     0.924180000000     0.132790000000    -0.494316   
O321     O      0.949860000000     0.104520000000     0.335130000000    -0.472213   
O322     O      0.935390000000     0.108170000000     0.376260000000    -0.494541   
O323     O      0.872170000000     0.076260000000     0.363440000000    -0.476058   
O324     O      0.882550000000     0.133470000000     0.373810000000    -0.475931   
O325     O      0.910880000000     0.104720000000     0.296120000000    -0.472161   
O326     O      0.898620000000     0.150810000000     0.337110000000    -0.497945   
O327     O      0.908870000000     0.058660000000     0.347410000000    -0.497917   
O328     O      0.869740000000     0.101410000000     0.310570000000    -0.494203   
O329     O      0.112470000000     0.101100000000     0.810680000000    -0.494431   
O330     O      0.071360000000     0.104860000000     0.796300000000    -0.472293   
O331     O      0.110150000000     0.076100000000     0.863510000000    -0.476268   
O332     O      0.099500000000     0.133260000000     0.874040000000    -0.476169   
O333     O      0.032380000000     0.104370000000     0.835250000000    -0.472253   
O334     O      0.083580000000     0.150700000000     0.837310000000    -0.498032   
O335     O      0.073480000000     0.058590000000     0.847610000000    -0.49803    
O336     O      0.046710000000     0.108170000000     0.876380000000    -0.494494   
O337     O      0.112700000000     0.174220000000     0.383410000000    -0.494517   
O338     O      0.116000000000     0.188640000000     0.424580000000    -0.472141   
O339     O      0.087560000000     0.121370000000     0.385680000000    -0.47589    
O340     O      0.144680000000     0.110900000000     0.396190000000    -0.476029   
O341     O      0.115790000000     0.149640000000     0.463510000000    -0.472117   
O342     O      0.162080000000     0.147570000000     0.412290000000    -0.497896   
O343     O      0.069930000000     0.137400000000     0.422360000000    -0.498038   
O344     O      0.119410000000     0.108510000000     0.449010000000    -0.494495   
O345     O      0.119610000000     0.035670000000     0.632930000000    -0.494413   
O346     O      0.160770000000     0.021200000000     0.629500000000    -0.472275   
O347     O      0.132470000000     0.099050000000     0.601240000000    -0.47619    
O348     O      0.121890000000     0.088420000000     0.658360000000    -0.475849   
O349     O      0.199690000000     0.060100000000     0.629710000000    -0.472254   
O350     O      0.158590000000     0.072370000000     0.675800000000    -0.498022   
O351     O      0.148450000000     0.062340000000     0.583600000000    -0.497915   
O352     O      0.185250000000     0.101290000000     0.626590000000    -0.49427    
O353     O      0.796780000000     0.101270000000     0.126590000000    -0.494145   
O354     O      0.782500000000     0.060110000000     0.129920000000    -0.472029   
O355     O      0.849500000000     0.098940000000     0.101200000000    -0.475887   
O356     O      0.860290000000     0.088250000000     0.158310000000    -0.476204   
O357     O      0.821460000000     0.021180000000     0.129650000000    -0.472323   
O358     O      0.823590000000     0.072480000000     0.175880000000    -0.498152   
O359     O      0.833750000000     0.062170000000     0.083680000000    -0.497787   
O360     O      0.862610000000     0.035480000000     0.132910000000    -0.494239   
O361     O      0.619490000000     0.108210000000     0.060280000000    -0.494077   
O362     O      0.615760000000     0.149340000000     0.045960000000    -0.472183   
O363     O      0.587430000000     0.121270000000     0.123760000000    -0.475914   
O364     O      0.644560000000     0.110520000000     0.113120000000    -0.476029   
O365     O      0.616200000000     0.188290000000     0.084840000000    -0.472191   
O366     O      0.662030000000     0.147250000000     0.097360000000    -0.498043   
O367     O      0.569930000000     0.137010000000     0.086980000000    -0.497727   
O368     O      0.612450000000     0.174060000000     0.125990000000    -0.494266   
O369     O      0.362790000000     0.035930000000     0.376000000000    -0.494183   
O370     O      0.321670000000     0.021600000000     0.379580000000    -0.472263   
O371     O      0.349740000000     0.099310000000     0.408120000000    -0.476148   
O372     O      0.360370000000     0.088750000000     0.350910000000    -0.476084   
O373     O      0.282670000000     0.060550000000     0.379280000000    -0.472155   
O374     O      0.323650000000     0.072930000000     0.333410000000    -0.498      
O375     O      0.333960000000     0.062550000000     0.425520000000    -0.497967   
O376     O      0.296950000000     0.101680000000     0.383030000000    -0.494265   
O377     O      0.369470000000     0.101870000000     0.198650000000    -0.494097   
O378     O      0.410630000000     0.105210000000     0.212970000000    -0.472003   
O379     O      0.371770000000     0.076450000000     0.145890000000    -0.476114   
O380     O      0.382440000000     0.133550000000     0.135140000000    -0.475949   
O381     O      0.449530000000     0.104840000000     0.174060000000    -0.472228   
O382     O      0.398210000000     0.151110000000     0.171900000000    -0.498018   
O383     O      0.408550000000     0.058920000000     0.161660000000    -0.497884   
O384     O      0.435210000000     0.108170000000     0.132890000000    -0.494242   


