data_structure

_audit_creation_method RASPA-1.0
_audit_creation_date 2023-5-22
_audit_author_name 'Poobodin Mano'

_cell_length_a    28.149
_cell_length_b    55.104
_cell_length_c    36.0926
_cell_angle_alpha 90.0009
_cell_angle_beta  90.0008
_cell_angle_gamma 120.002
_cell_volume      48482.6

_symmetry_cell_setting          triclinic
_symmetry_space_group_name_Hall 'P 1'
_symmetry_space_group_name_H-M  'P 1'
_symmetry_Int_Tables_number     1

_symmetry_equiv_pos_as_xyz 'x,y,z'

loop_
_atom_site_label
_atom_site_type_symbol
_atom_site_fract_x
_atom_site_fract_y
_atom_site_fract_z
_atom_site_charge
C1       C      0.483190000000     0.263630000000     0.251220000000     0.346838   
C2       C      0.355660000000     0.228050000000     0.336390000000     0.353193   
C3       C      0.445010000000     0.182900000000     0.284970000000     0.353742   
C4       C      0.515040000000     0.247010000000     0.370760000000     0.347319   
C5       C      0.610760000000     0.033430000000     0.026910000000     0.351754   
C6       C      0.766040000000     0.072570000000     0.450290000000     0.350469   
C7       C      0.673480000000     0.484400000000     0.983720000000     0.353206   
C8       C      0.600840000000     0.025450000000     0.408590000000     0.347277   
C9       C      0.062370000000     0.251750000000     0.457200000000     0.351179   
C10      C      0.155830000000     0.223740000000     0.384640000000     0.356047   
C11      C      0.972640000000     0.170060000000     0.412230000000     0.355223   
C12      C      0.043570000000     0.244410000000     0.335550000000     0.350965   
C13      C      0.480370000000     0.025630000000     0.279360000000     0.352842   
C14      C      0.333250000000     0.490440000000     0.202880000000     0.35571    
C15      C      0.439050000000     0.082670000000     0.231360000000     0.355034   
C16      C      0.493560000000     0.035340000000     0.157210000000     0.350999   
C17      C      0.634930000000     0.303400000000     0.001590000000     0.348547   
C18      C      0.760950000000     0.338580000000     0.082300000000     0.353347   
C19      C      0.668670000000     0.384890000000     0.038910000000     0.353129   
C20      C      0.600090000000     0.321610000000     0.120310000000     0.348678   
C21      C      0.038550000000     0.304360000000     0.206040000000     0.348004   
C22      C      0.958180000000     0.341660000000     0.133720000000     0.354059   
C23      C      0.134120000000     0.388640000000     0.164860000000     0.35082    
C24      C      0.056520000000     0.311200000000     0.087260000000     0.353012   
C25      C      0.863420000000     0.362130000000     0.086100000000    -0.00488165 
C26      C      0.811580000000     0.339730000000     0.095840000000    -0.0775774  
C27      C      0.808430000000     0.318610000000     0.119240000000    -0.00503238 
C28      C      0.856140000000     0.319660000000     0.132270000000    -0.00475213 
C29      C      0.908010000000     0.341840000000     0.122160000000    -0.0754353  
C30      C      0.911220000000     0.363180000000     0.099140000000    -0.00572615 
C31      C      0.261360000000     0.460310000000     0.156670000000    -0.00440281 
C32      C      0.280000000000     0.465560000000     0.193530000000    -0.0777089  
C33      C      0.248830000000     0.445990000000     0.221030000000    -0.00472351 
C34      C      0.200590000000     0.421390000000     0.211760000000    -0.00598598 
C35      C      0.182890000000     0.415680000000     0.174740000000    -0.0767543  
C36      C      0.213410000000     0.435500000000     0.147320000000    -0.00558596 
C37      C      0.052550000000     0.252380000000     0.267030000000    -0.0047698  
C38      C      0.038540000000     0.258220000000     0.301940000000    -0.0755589  
C39      C      0.022030000000     0.278360000000     0.304730000000    -0.00511656 
C40      C      0.020580000000     0.292790000000     0.273330000000    -0.0052594  
C41      C      0.036220000000     0.287590000000     0.238600000000    -0.0736361  
C42      C      0.051700000000     0.267060000000     0.235660000000    -0.00656029 
C43      C      0.108480000000     0.281260000000     0.013270000000    -0.00590711 
C44      C      0.062180000000     0.267510000000     0.990240000000    -0.0738876  
C45      C      0.014740000000     0.268590000000     0.999170000000    -0.00539935 
C46      C      0.013290000000     0.282860000000     0.030650000000    -0.0049032  
C47      C      0.059370000000     0.296560000000     0.053800000000    -0.0759518  
C48      C      0.107170000000     0.295790000000     0.044760000000    -0.0044315  
C49      C      0.528850000000     0.032810000000     0.378640000000    -0.00698759 
C50      C      0.567600000000     0.023920000000     0.376070000000    -0.0733925  
C51      C      0.575490000000     0.014300000000     0.341840000000    -0.00568421 
C52      C      0.546350000000     0.014360000000     0.310520000000    -0.00469063 
C53      C      0.508260000000     0.023700000000     0.312950000000    -0.0766325  
C54      C      0.499190000000     0.032530000000     0.347410000000    -0.00420242 
C55      C      0.583290000000     0.059450000000     0.071240000000    -0.00483586 
C56      C      0.581330000000     0.034510000000     0.060190000000    -0.0753264  
C57      C      0.550670000000     0.510130000000     0.081340000000    -0.00533887 
C58      C      0.522610000000     0.510610000000     0.112890000000    -0.00485862 
C59      C      0.524160000000     0.035420000000     0.123920000000    -0.0742199  
C60      C      0.554690000000     0.059870000000     0.102800000000    -0.00589123 
C61      C      0.713200000000     0.437150000000     0.034800000000    -0.00507668 
C62      C      0.670570000000     0.410460000000     0.024580000000    -0.0769721  
C63      C      0.630160000000     0.408330000000     0.999820000000    -0.00518283 
C64      C      0.631980000000     0.432420000000     0.485860000000    -0.00486464 
C65      C      0.674150000000     0.459100000000     0.996410000000    -0.0755586  
C66      C      0.714950000000     0.461270000000     0.020860000000    -0.00542832 
C67      C      0.834230000000     0.104160000000     0.403270000000    -0.00613214 
C68      C      0.820520000000     0.096390000000     0.440530000000    -0.0765347  
C69      C      0.858680000000     0.112040000000     0.968240000000    -0.00561309 
C70      C      0.909150000000     0.135400000000     0.458920000000    -0.004519   
C71      C      0.922050000000     0.143710000000     0.421730000000    -0.0779586  
C72      C      0.884340000000     0.127700000000     0.393980000000    -0.0046937  
C73      C      0.630890000000     0.297070000000     0.432860000000    -0.00552865 
C74      C      0.609590000000     0.286390000000     0.468110000000    -0.0741998  
C75      C      0.559990000000     0.260820000000     0.470860000000    -0.00537649 
C76      C      0.530400000000     0.247190000000     0.439020000000    -0.00609346 
C77      C      0.550000000000     0.258820000000     0.403880000000    -0.0743906  
C78      C      0.601390000000     0.283380000000     0.401020000000    -0.00565134 
C79      C      0.486440000000     0.270360000000     0.182640000000    -0.00626347 
C80      C      0.508030000000     0.280910000000     0.217860000000    -0.0740076  
C81      C      0.556830000000     0.306860000000     0.220640000000    -0.00595694 
C82      C      0.585430000000     0.321040000000     0.188750000000    -0.00542459 
C83      C      0.565600000000     0.309560000000     0.153570000000    -0.0750521  
C84      C      0.514910000000     0.284580000000     0.150780000000    -0.00510114 
C85      C      0.260650000000     0.201780000000     0.362730000000    -0.00497694 
C86      C      0.305240000000     0.227080000000     0.350100000000    -0.0771188  
C87      C      0.301000000000     0.251410000000     0.350310000000    -0.00588599 
C88      C      0.252870000000     0.250400000000     0.362380000000    -0.00435293 
C89      C      0.207870000000     0.225010000000     0.374330000000    -0.0771865  
C90      C      0.212360000000     0.200740000000     0.374640000000    -0.0050951  
C91      C      0.394410000000     0.134940000000     0.256940000000    -0.00463344 
C92      C      0.443690000000     0.157600000000     0.270040000000    -0.0769764  
C93      C      0.491770000000     0.155860000000     0.268840000000    -0.00557547 
C94      C      0.490460000000     0.131780000000     0.255310000000    -0.00456554 
C95      C      0.440990000000     0.108880000000     0.242890000000    -0.0764478  
C96      C      0.393030000000     0.110760000000     0.243590000000    -0.00525165 
C97      C      0.483170000000     0.263630000000     0.751220000000     0.346699   
C98      C      0.355640000000     0.228040000000     0.836390000000     0.352933   
C99      C      0.444990000000     0.182890000000     0.784970000000     0.353781   
C100     C      0.515020000000     0.247010000000     0.870760000000     0.347382   
C101     C      0.610770000000     0.033440000000     0.526910000000     0.351381   
C102     C      0.766020000000     0.072560000000     0.950280000000     0.350821   
C103     C      0.673510000000     0.484420000000     0.483720000000     0.353143   
C104     C      0.600820000000     0.025440000000     0.908590000000     0.347759   
C105     C      0.062350000000     0.251730000000     0.957210000000     0.35113    
C106     C      0.155800000000     0.223730000000     0.884640000000     0.356017   
C107     C      0.972610000000     0.170050000000     0.912230000000     0.355016   
C108     C      0.043530000000     0.244400000000     0.835550000000     0.35108    
C109     C      0.480360000000     0.025630000000     0.779360000000     0.352968   
C110     C      0.333240000000     0.490430000000     0.702880000000     0.355522   
C111     C      0.439040000000     0.082670000000     0.731360000000     0.35501    
C112     C      0.493550000000     0.035350000000     0.657210000000     0.351037   
C113     C      0.634900000000     0.303420000000     0.501600000000     0.348346   
C114     C      0.760940000000     0.338580000000     0.582300000000     0.353099   
C115     C      0.668670000000     0.384900000000     0.538920000000     0.35312    
C116     C      0.600080000000     0.321610000000     0.620320000000     0.348926   
C117     C      0.038520000000     0.304350000000     0.706040000000     0.347817   
C118     C      0.958150000000     0.341650000000     0.633730000000     0.353846   
C119     C      0.134100000000     0.388630000000     0.664860000000     0.351306   
C120     C      0.056520000000     0.311210000000     0.587260000000     0.352734   
C121     C      0.863400000000     0.362140000000     0.586120000000    -0.00492739 
C122     C      0.811560000000     0.339730000000     0.595850000000    -0.0775678  
C123     C      0.808410000000     0.318610000000     0.619230000000    -0.0049533  
C124     C      0.856120000000     0.319650000000     0.632260000000    -0.00487408 
C125     C      0.907990000000     0.341840000000     0.622160000000    -0.0753278  
C126     C      0.911200000000     0.363180000000     0.599150000000    -0.00573892 
C127     C      0.261340000000     0.460310000000     0.656670000000    -0.00445434 
C128     C      0.279980000000     0.465560000000     0.693530000000    -0.0776485  
C129     C      0.248820000000     0.445990000000     0.721030000000    -0.00474078 
C130     C      0.200570000000     0.421380000000     0.711770000000    -0.00599002 
C131     C      0.182870000000     0.415670000000     0.674740000000    -0.0768937  
C132     C      0.213390000000     0.435500000000     0.647320000000    -0.00552445 
C133     C      0.052510000000     0.252370000000     0.767030000000    -0.00467043 
C134     C      0.038500000000     0.258210000000     0.801940000000    -0.0756371  
C135     C      0.022000000000     0.278350000000     0.804730000000    -0.00510655 
C136     C      0.020550000000     0.292780000000     0.773330000000    -0.0052434  
C137     C      0.036180000000     0.287580000000     0.738610000000    -0.0735442  
C138     C      0.051660000000     0.267050000000     0.735660000000    -0.00666721 
C139     C      0.108490000000     0.281260000000     0.513290000000    -0.00610491 
C140     C      0.062200000000     0.267520000000     0.490240000000    -0.0737684  
C141     C      0.014770000000     0.268620000000     0.499160000000    -0.0051609  
C142     C      0.013310000000     0.282880000000     0.530640000000    -0.00516139 
C143     C      0.059380000000     0.296570000000     0.553800000000    -0.0758029  
C144     C      0.107170000000     0.295790000000     0.544780000000    -0.00447265 
C145     C      0.528830000000     0.032800000000     0.878640000000    -0.00686308 
C146     C      0.567580000000     0.023910000000     0.876070000000    -0.0736244  
C147     C      0.575460000000     0.014290000000     0.841840000000    -0.00554876 
C148     C      0.546330000000     0.014350000000     0.810520000000    -0.0047535  
C149     C      0.508240000000     0.023690000000     0.812950000000    -0.0766232  
C150     C      0.499170000000     0.032530000000     0.847410000000    -0.0043049  
C151     C      0.583300000000     0.059460000000     0.571240000000    -0.00490678 
C152     C      0.581330000000     0.034520000000     0.560190000000    -0.0751647  
C153     C      0.550670000000     0.510140000000     0.581340000000    -0.00538111 
C154     C      0.522610000000     0.510610000000     0.612890000000    -0.00494315 
C155     C      0.524150000000     0.035430000000     0.623920000000    -0.0742058  
C156     C      0.554690000000     0.059880000000     0.602800000000    -0.00592372 
C157     C      0.713200000000     0.437160000000     0.534820000000    -0.00491512 
C158     C      0.670570000000     0.410470000000     0.524600000000    -0.0772618  
C159     C      0.630170000000     0.408350000000     0.499830000000    -0.00485158 
C160     C      0.631960000000     0.432400000000     0.985860000000    -0.00468561 
C161     C      0.674170000000     0.459120000000     0.496410000000    -0.075258   
C162     C      0.714960000000     0.461280000000     0.520870000000    -0.0057257  
C163     C      0.834210000000     0.104150000000     0.903260000000    -0.00609847 
C164     C      0.820510000000     0.096380000000     0.940520000000    -0.0766679  
C165     C      0.858700000000     0.112050000000     0.468250000000    -0.00565219 
C166     C      0.909140000000     0.135380000000     0.958910000000    -0.00453292 
C167     C      0.922030000000     0.143700000000     0.921730000000    -0.0779143  
C168     C      0.884330000000     0.127680000000     0.893970000000    -0.00474182 
C169     C      0.630890000000     0.297050000000     0.932860000000    -0.00541026 
C170     C      0.609600000000     0.286370000000     0.968100000000    -0.0744589  
C171     C      0.559990000000     0.260810000000     0.970850000000    -0.00529473 
C172     C      0.530400000000     0.247180000000     0.939020000000    -0.00615782 
C173     C      0.549990000000     0.258810000000     0.903880000000    -0.0743815  
C174     C      0.601380000000     0.283370000000     0.901020000000    -0.00569754 
C175     C      0.486430000000     0.270360000000     0.682640000000    -0.00634649 
C176     C      0.508020000000     0.280910000000     0.717860000000    -0.0739481  
C177     C      0.556810000000     0.306860000000     0.720650000000    -0.00602117 
C178     C      0.585410000000     0.321040000000     0.688760000000    -0.00532196 
C179     C      0.565580000000     0.309560000000     0.653570000000    -0.0752269  
C180     C      0.514900000000     0.284590000000     0.650780000000    -0.00498624 
C181     C      0.260630000000     0.201770000000     0.862730000000    -0.00503592 
C182     C      0.305220000000     0.227070000000     0.850100000000    -0.0769922  
C183     C      0.300980000000     0.251400000000     0.850310000000    -0.0059507  
C184     C      0.252840000000     0.250390000000     0.862380000000    -0.00433433 
C185     C      0.207840000000     0.225000000000     0.874330000000    -0.0771893  
C186     C      0.212330000000     0.200730000000     0.874640000000    -0.00509588 
C187     C      0.394390000000     0.134940000000     0.756940000000    -0.00464983 
C188     C      0.443680000000     0.157600000000     0.770040000000    -0.0770778  
C189     C      0.491750000000     0.155860000000     0.768840000000    -0.00551318 
C190     C      0.490440000000     0.131770000000     0.755310000000    -0.00460444 
C191     C      0.440970000000     0.108880000000     0.742890000000    -0.076411   
C192     C      0.393010000000     0.110760000000     0.743590000000    -0.0052534  
C193     C      0.483190000000     0.763630000000     0.251220000000     0.346819   
C194     C      0.355660000000     0.728050000000     0.336390000000     0.353234   
C195     C      0.445010000000     0.682900000000     0.284970000000     0.353724   
C196     C      0.515040000000     0.747010000000     0.370760000000     0.34732    
C197     C      0.610760000000     0.533430000000     0.026910000000     0.35178    
C198     C      0.766040000000     0.572570000000     0.450290000000     0.350479   
C199     C      0.673480000000     0.984400000000     0.983720000000     0.353395   
C200     C      0.600840000000     0.525450000000     0.408590000000     0.347286   
C201     C      0.062380000000     0.751750000000     0.457200000000     0.351052   
C202     C      0.155830000000     0.723740000000     0.384640000000     0.356053   
C203     C      0.972640000000     0.670060000000     0.412230000000     0.35523    
C204     C      0.043570000000     0.744410000000     0.335550000000     0.350951   
C205     C      0.480370000000     0.525630000000     0.279360000000     0.352773   
C206     C      0.333250000000     0.990440000000     0.202880000000     0.3559     
C207     C      0.439050000000     0.582670000000     0.231360000000     0.355014   
C208     C      0.493560000000     0.535350000000     0.157210000000     0.351052   
C209     C      0.634930000000     0.803400000000     0.001590000000     0.348541   
C210     C      0.760950000000     0.838570000000     0.082300000000     0.353012   
C211     C      0.668670000000     0.884890000000     0.038910000000     0.353125   
C212     C      0.600090000000     0.821610000000     0.120310000000     0.348819   
C213     C      0.038550000000     0.804360000000     0.206040000000     0.348026   
C214     C      0.958180000000     0.841660000000     0.133720000000     0.354062   
C215     C      0.134110000000     0.888640000000     0.164860000000     0.350837   
C216     C      0.056530000000     0.811200000000     0.087260000000     0.353004   
C217     C      0.863420000000     0.862130000000     0.086100000000    -0.00493013 
C218     C      0.811580000000     0.839730000000     0.095840000000    -0.0774922  
C219     C      0.808430000000     0.818610000000     0.119240000000    -0.00508328 
C220     C      0.856140000000     0.819660000000     0.132270000000    -0.00471959 
C221     C      0.908010000000     0.841840000000     0.122160000000    -0.0754705  
C222     C      0.911220000000     0.863170000000     0.099130000000    -0.00566636 
C223     C      0.261360000000     0.960310000000     0.156670000000    -0.00432655 
C224     C      0.280000000000     0.965560000000     0.193530000000    -0.0777614  
C225     C      0.248840000000     0.945990000000     0.221030000000    -0.00466967 
C226     C      0.200590000000     0.921390000000     0.211760000000    -0.00603348 
C227     C      0.182890000000     0.915680000000     0.174740000000    -0.0766916  
C228     C      0.213410000000     0.935500000000     0.147320000000    -0.0056197  
C229     C      0.052550000000     0.752380000000     0.267030000000    -0.00476916 
C230     C      0.038540000000     0.758220000000     0.301940000000    -0.0755376  
C231     C      0.022030000000     0.778360000000     0.304730000000    -0.00517746 
C232     C      0.020580000000     0.792780000000     0.273330000000    -0.00513967 
C233     C      0.036220000000     0.787590000000     0.238600000000    -0.0736906  
C234     C      0.051700000000     0.767060000000     0.235660000000    -0.00653976 
C235     C      0.108480000000     0.781260000000     0.013270000000    -0.00596905 
C236     C      0.062180000000     0.767510000000     0.990240000000    -0.0737976  
C237     C      0.014740000000     0.768590000000     0.999170000000    -0.00544901 
C238     C      0.013290000000     0.782860000000     0.030650000000    -0.00485831 
C239     C      0.059370000000     0.796560000000     0.053800000000    -0.0760082  
C240     C      0.107160000000     0.795790000000     0.044760000000    -0.00435728 
C241     C      0.528850000000     0.532810000000     0.378640000000    -0.00692493 
C242     C      0.567600000000     0.523920000000     0.376070000000    -0.0734049  
C243     C      0.575490000000     0.514300000000     0.341840000000    -0.00564896 
C244     C      0.546350000000     0.514360000000     0.310520000000    -0.00470892 
C245     C      0.508260000000     0.523700000000     0.312950000000    -0.076554   
C246     C      0.499190000000     0.532540000000     0.347410000000    -0.00429003 
C247     C      0.583290000000     0.559450000000     0.071240000000    -0.00480857 
C248     C      0.581330000000     0.534510000000     0.060190000000    -0.0753681  
C249     C      0.550670000000     0.010130000000     0.081340000000    -0.00550803 
C250     C      0.522610000000     0.010610000000     0.112890000000    -0.00500035 
C251     C      0.524160000000     0.535420000000     0.123920000000    -0.0742112  
C252     C      0.554690000000     0.559870000000     0.102800000000    -0.00590579 
C253     C      0.713200000000     0.937150000000     0.034800000000    -0.00508049 
C254     C      0.670570000000     0.910460000000     0.024580000000    -0.0769568  
C255     C      0.630160000000     0.908330000000     0.999820000000    -0.00518754 
C256     C      0.631970000000     0.932420000000     0.485860000000    -0.00494327 
C257     C      0.674160000000     0.959100000000     0.996400000000    -0.0755913  
C258     C      0.714950000000     0.961270000000     0.020860000000    -0.00538869 
C259     C      0.834230000000     0.604170000000     0.403270000000    -0.00613169 
C260     C      0.820520000000     0.596390000000     0.440530000000    -0.0765221  
C261     C      0.858680000000     0.612040000000     0.968240000000    -0.00565833 
C262     C      0.909150000000     0.635400000000     0.458920000000    -0.00449881 
C263     C      0.922050000000     0.643710000000     0.421730000000    -0.0779699  
C264     C      0.884350000000     0.627700000000     0.393980000000    -0.00467829 
C265     C      0.630890000000     0.797070000000     0.432860000000    -0.00553795 
C266     C      0.609590000000     0.786390000000     0.468110000000    -0.0741705  
C267     C      0.559990000000     0.760820000000     0.470860000000    -0.00536653 
C268     C      0.530400000000     0.747180000000     0.439020000000    -0.00613477 
C269     C      0.550000000000     0.758820000000     0.403880000000    -0.0743678  
C270     C      0.601390000000     0.783380000000     0.401020000000    -0.00565247 
C271     C      0.486450000000     0.770360000000     0.182640000000    -0.00630367 
C272     C      0.508030000000     0.780910000000     0.217860000000    -0.073963   
C273     C      0.556830000000     0.806860000000     0.220640000000    -0.00603238 
C274     C      0.585430000000     0.821040000000     0.188750000000    -0.00532846 
C275     C      0.565600000000     0.809560000000     0.153560000000    -0.0751992  
C276     C      0.514910000000     0.784580000000     0.150780000000    -0.00499635 
C277     C      0.260660000000     0.701780000000     0.362730000000    -0.00495108 
C278     C      0.305250000000     0.727080000000     0.350100000000    -0.0771861  
C279     C      0.301000000000     0.751410000000     0.350310000000    -0.0058569  
C280     C      0.252870000000     0.750400000000     0.362380000000    -0.00436645 
C281     C      0.207870000000     0.725010000000     0.374330000000    -0.0771688  
C282     C      0.212360000000     0.700740000000     0.374640000000    -0.00510689 
C283     C      0.394410000000     0.634940000000     0.256940000000    -0.00465869 
C284     C      0.443700000000     0.657600000000     0.270040000000    -0.0769457  
C285     C      0.491770000000     0.655860000000     0.268840000000    -0.00555558 
C286     C      0.490460000000     0.631780000000     0.255310000000    -0.00459686 
C287     C      0.440980000000     0.608880000000     0.242890000000    -0.0764078  
C288     C      0.393030000000     0.610760000000     0.243590000000    -0.0052344  
C289     C      0.483170000000     0.763630000000     0.751220000000     0.346755   
C290     C      0.355640000000     0.728040000000     0.836390000000     0.352939   
C291     C      0.444990000000     0.682890000000     0.784970000000     0.354093   
C292     C      0.515020000000     0.747010000000     0.870760000000     0.347444   
C293     C      0.610770000000     0.533440000000     0.526910000000     0.351399   
C294     C      0.766020000000     0.572560000000     0.950280000000     0.350814   
C295     C      0.673510000000     0.984420000000     0.483720000000     0.353287   
C296     C      0.600820000000     0.525440000000     0.908590000000     0.347752   
C297     C      0.062350000000     0.751730000000     0.957200000000     0.351179   
C298     C      0.155800000000     0.723730000000     0.884630000000     0.355941   
C299     C      0.972610000000     0.670040000000     0.912220000000     0.355253   
C300     C      0.043530000000     0.744400000000     0.835550000000     0.351098   
C301     C      0.480350000000     0.525620000000     0.779360000000     0.352987   
C302     C      0.333240000000     0.990440000000     0.702880000000     0.355939   
C303     C      0.439040000000     0.582670000000     0.731360000000     0.354983   
C304     C      0.493550000000     0.535350000000     0.657210000000     0.351049   
C305     C      0.634900000000     0.803420000000     0.501600000000     0.348252   
C306     C      0.760940000000     0.838580000000     0.582300000000     0.3531     
C307     C      0.668670000000     0.884910000000     0.538920000000     0.353165   
C308     C      0.600080000000     0.821620000000     0.620320000000     0.348912   
C309     C      0.038520000000     0.804350000000     0.706040000000     0.347619   
C310     C      0.958160000000     0.841650000000     0.633730000000     0.353907   
C311     C      0.134100000000     0.888640000000     0.664860000000     0.351177   
C312     C      0.056520000000     0.811200000000     0.587260000000     0.352681   
C313     C      0.863400000000     0.862140000000     0.586120000000    -0.0049208  
C314     C      0.811560000000     0.839730000000     0.595850000000    -0.077561   
C315     C      0.808410000000     0.818610000000     0.619230000000    -0.00496574 
C316     C      0.856120000000     0.819650000000     0.632260000000    -0.00484469 
C317     C      0.907990000000     0.841840000000     0.622160000000    -0.075287   
C318     C      0.911200000000     0.863180000000     0.599150000000    -0.00575095 
C319     C      0.261340000000     0.960310000000     0.656670000000    -0.0044042  
C320     C      0.279980000000     0.965560000000     0.693530000000    -0.0777102  
C321     C      0.248820000000     0.945990000000     0.721030000000    -0.00469564 
C322     C      0.200570000000     0.921380000000     0.711770000000    -0.00599383 
C323     C      0.182870000000     0.915670000000     0.674740000000    -0.0769013  
C324     C      0.213390000000     0.935500000000     0.647320000000    -0.00552379 
C325     C      0.052510000000     0.752370000000     0.767030000000    -0.00464398 
C326     C      0.038500000000     0.758210000000     0.801940000000    -0.0756618  
C327     C      0.022000000000     0.778350000000     0.804730000000    -0.00506294 
C328     C      0.020550000000     0.792780000000     0.773330000000    -0.00532597 
C329     C      0.036190000000     0.787580000000     0.738610000000    -0.0734342  
C330     C      0.051660000000     0.767050000000     0.735660000000    -0.00670793 
C331     C      0.108490000000     0.781260000000     0.513290000000    -0.00615299 
C332     C      0.062200000000     0.767520000000     0.490240000000    -0.0736896  
C333     C      0.014770000000     0.768610000000     0.499160000000    -0.00521066 
C334     C      0.013310000000     0.782880000000     0.530630000000    -0.00511672 
C335     C      0.059380000000     0.796570000000     0.553800000000    -0.0758899  
C336     C      0.107170000000     0.795790000000     0.544780000000    -0.00442391 
C337     C      0.528830000000     0.532800000000     0.878640000000    -0.00690286 
C338     C      0.567580000000     0.523910000000     0.876070000000    -0.0735813  
C339     C      0.575460000000     0.514290000000     0.841840000000    -0.00556988 
C340     C      0.546330000000     0.514350000000     0.810520000000    -0.00468876 
C341     C      0.508240000000     0.523690000000     0.812950000000    -0.0766638  
C342     C      0.499170000000     0.532520000000     0.847410000000    -0.00421781 
C343     C      0.583300000000     0.559460000000     0.571240000000    -0.00488362 
C344     C      0.581330000000     0.534520000000     0.560190000000    -0.0752098  
C345     C      0.550670000000     0.010140000000     0.581340000000    -0.00556306 
C346     C      0.522610000000     0.010610000000     0.612890000000    -0.00503868 
C347     C      0.524150000000     0.535430000000     0.623920000000    -0.0742112  
C348     C      0.554690000000     0.559880000000     0.602800000000    -0.00592321 
C349     C      0.713200000000     0.937160000000     0.534820000000    -0.00482523 
C350     C      0.670570000000     0.910470000000     0.524600000000    -0.0774492  
C351     C      0.630170000000     0.908350000000     0.499830000000    -0.00473707 
C352     C      0.631960000000     0.932400000000     0.985860000000    -0.004655   
C353     C      0.674180000000     0.959120000000     0.496410000000    -0.0752102  
C354     C      0.714960000000     0.961280000000     0.520870000000    -0.00574003 
C355     C      0.834210000000     0.604150000000     0.903260000000    -0.00612927 
C356     C      0.820510000000     0.596380000000     0.940520000000    -0.0766296  
C357     C      0.858700000000     0.612050000000     0.468250000000    -0.0056559  
C358     C      0.909130000000     0.635380000000     0.958910000000    -0.00443141 
C359     C      0.922030000000     0.643700000000     0.921730000000    -0.0780807  
C360     C      0.884320000000     0.627680000000     0.893970000000    -0.00467414 
C361     C      0.630890000000     0.797050000000     0.932860000000    -0.00541591 
C362     C      0.609600000000     0.786370000000     0.968100000000    -0.0744612  
C363     C      0.560000000000     0.760810000000     0.970850000000    -0.00527372 
C364     C      0.530400000000     0.747180000000     0.939020000000    -0.00617358 
C365     C      0.549990000000     0.758820000000     0.903880000000    -0.0743955  
C366     C      0.601380000000     0.783370000000     0.901020000000    -0.00567549 
C367     C      0.486430000000     0.770360000000     0.682640000000    -0.00632842 
C368     C      0.508020000000     0.780910000000     0.717860000000    -0.0739696  
C369     C      0.556810000000     0.806860000000     0.720650000000    -0.00599964 
C370     C      0.585420000000     0.821040000000     0.688760000000    -0.00535761 
C371     C      0.565580000000     0.809560000000     0.653570000000    -0.0751878  
C372     C      0.514900000000     0.784590000000     0.650780000000    -0.00499977 
C373     C      0.260630000000     0.701770000000     0.862730000000    -0.00503418 
C374     C      0.305220000000     0.727070000000     0.850100000000    -0.0769934  
C375     C      0.300980000000     0.751400000000     0.850310000000    -0.00594753 
C376     C      0.252840000000     0.750390000000     0.862380000000    -0.00433771 
C377     C      0.207840000000     0.725000000000     0.874330000000    -0.0771902  
C378     C      0.212330000000     0.700730000000     0.874640000000    -0.00509243 
C379     C      0.394390000000     0.634940000000     0.756940000000    -0.00456829 
C380     C      0.443680000000     0.657600000000     0.770040000000    -0.0772192  
C381     C      0.491750000000     0.655860000000     0.768840000000    -0.0054261  
C382     C      0.490440000000     0.631770000000     0.755310000000    -0.00467732 
C383     C      0.440970000000     0.608880000000     0.742890000000    -0.0763551  
C384     C      0.393010000000     0.610760000000     0.743580000000    -0.00530888 
H1       H      0.867090000000     0.378790000000     0.068250000000     0.0506579  
H2       H      0.769060000000     0.301170000000     0.127390000000     0.0500799  
H3       H      0.852340000000     0.302860000000     0.149880000000     0.0516018  
H4       H      0.950640000000     0.380470000000     0.090760000000     0.0497858  
H5       H      0.284640000000     0.474990000000     0.134860000000     0.0492414  
H6       H      0.262150000000     0.449500000000     0.249660000000     0.049644   
H7       H      0.177910000000     0.406490000000     0.233520000000     0.0499573  
H8       H      0.200660000000     0.431690000000     0.118580000000     0.0499064  
H9       H      0.065500000000     0.236990000000     0.264090000000     0.0494632  
H10      H      0.010860000000     0.283230000000     0.331280000000     0.0512257  
H11      H      0.008480000000     0.308500000000     0.276440000000     0.0520338  
H12      H      0.063820000000     0.262570000000     0.209200000000     0.0499074  
H13      H      0.145630000000     0.280770000000     0.507020000000     0.0501928  
H14      H      0.978380000000     0.258190000000     0.982000000000     0.0516649  
H15      H      0.975890000000     0.283130000000     0.036810000000     0.0507917  
H16      H      0.143270000000     0.306170000000     0.062170000000     0.0500709  
H17      H      0.521790000000     0.040230000000     0.404710000000     0.0498055  
H18      H      0.605090000000     0.007320000000     0.339040000000     0.0518775  
H19      H      0.554120000000     0.007410000000     0.284310000000     0.0506181  
H20      H      0.470180000000     0.039910000000     0.350070000000     0.0492845  
H21      H      0.606610000000     0.078540000000     0.055410000000     0.0501605  
H22      H      0.548460000000     0.490590000000     0.073610000000     0.0508873  
H23      H      0.499380000000     0.491410000000     0.128540000000     0.0512163  
H24      H      0.556600000000     0.079310000000     0.110700000000     0.0501673  
H25      H      0.745070000000     0.439410000000     0.053690000000     0.0506838  
H26      H      0.596980000000     0.388060000000     0.491280000000     0.0504382  
H27      H      0.599850000000     0.430090000000     0.467160000000     0.0518246  
H28      H      0.747850000000     0.481580000000     0.029580000000     0.0498436  
H29      H      0.805650000000     0.092470000000     0.381280000000     0.0497724  
H30      H      0.849320000000     0.106460000000     0.997170000000     0.0501355  
H31      H      0.937320000000     0.147400000000     0.980920000000     0.0492048  
H32      H      0.893170000000     0.133610000000     0.365100000000     0.0496337  
H33      H      0.669060000000     0.316690000000     0.429890000000     0.0501296  
H34      H      0.542610000000     0.252020000000     0.997660000000     0.0525731  
H35      H      0.491100000000     0.228190000000     0.442050000000     0.0502276  
H36      H      0.617700000000     0.292750000000     0.374260000000     0.0525971  
H37      H      0.448780000000     0.250490000000     0.179650000000     0.0504999  
H38      H      0.574340000000     0.315560000000     0.247460000000     0.0525948  
H39      H      0.624280000000     0.340300000000     0.191730000000     0.0498089  
H40      H      0.498450000000     0.275280000000     0.124010000000     0.0526265  
H41      H      0.262780000000     0.182690000000     0.362960000000     0.0508704  
H42      H      0.334740000000     0.271230000000     0.340870000000     0.0494754  
H43      H      0.250630000000     0.269460000000     0.361760000000     0.0501293  
H44      H      0.178340000000     0.180870000000     0.383670000000     0.0495833  
H45      H      0.356720000000     0.135730000000     0.257430000000     0.0509151  
H46      H      0.530420000000     0.173050000000     0.278580000000     0.0495321  
H47      H      0.528070000000     0.130910000000     0.255220000000     0.0502299  
H48      H      0.354290000000     0.093430000000     0.234260000000     0.0500096  
H49      H      0.867080000000     0.378800000000     0.568280000000     0.0506516  
H50      H      0.769040000000     0.301160000000     0.627380000000     0.0500432  
H51      H      0.852320000000     0.302850000000     0.649860000000     0.051624   
H52      H      0.950620000000     0.380480000000     0.590790000000     0.0497763  
H53      H      0.284620000000     0.474990000000     0.634860000000     0.0492396  
H54      H      0.262130000000     0.449490000000     0.749660000000     0.0496416  
H55      H      0.177890000000     0.406490000000     0.733520000000     0.0499636  
H56      H      0.200640000000     0.431690000000     0.618580000000     0.0498706  
H57      H      0.065450000000     0.236970000000     0.764080000000     0.0494271  
H58      H      0.010840000000     0.283220000000     0.831280000000     0.0512143  
H59      H      0.008450000000     0.308500000000     0.776440000000     0.0520175  
H60      H      0.063770000000     0.262560000000     0.709200000000     0.0499287  
H61      H      0.145630000000     0.280770000000     0.006990000000     0.0502048  
H62      H      0.978410000000     0.258220000000     0.481970000000     0.0516523  
H63      H      0.975910000000     0.283160000000     0.536790000000     0.0508189  
H64      H      0.143260000000     0.306160000000     0.562190000000     0.0500629  
H65      H      0.521770000000     0.040220000000     0.904710000000     0.0497447  
H66      H      0.605070000000     0.007310000000     0.839040000000     0.0518331  
H67      H      0.554100000000     0.007400000000     0.784310000000     0.0506215  
H68      H      0.470170000000     0.039910000000     0.850070000000     0.0492981  
H69      H      0.606610000000     0.078550000000     0.555420000000     0.0501583  
H70      H      0.548450000000     0.490600000000     0.573610000000     0.0508784  
H71      H      0.499380000000     0.491420000000     0.628530000000     0.0512342  
H72      H      0.556600000000     0.079310000000     0.610710000000     0.0501718  
H73      H      0.745060000000     0.439420000000     0.553720000000     0.0506284  
H74      H      0.596970000000     0.388040000000     0.991270000000     0.0504605  
H75      H      0.599820000000     0.430070000000     0.967160000000     0.0517456  
H76      H      0.747860000000     0.481600000000     0.529600000000     0.0498594  
H77      H      0.805630000000     0.092450000000     0.881280000000     0.0497592  
H78      H      0.849340000000     0.106480000000     0.497180000000     0.0501881  
H79      H      0.937340000000     0.147410000000     0.480920000000     0.0492415  
H80      H      0.893140000000     0.133590000000     0.865090000000     0.0496427  
H81      H      0.669070000000     0.316680000000     0.929890000000     0.0500488  
H82      H      0.542600000000     0.252030000000     0.497670000000     0.0526607  
H83      H      0.491090000000     0.228190000000     0.942050000000     0.0502212  
H84      H      0.617690000000     0.292740000000     0.874250000000     0.0525932  
H85      H      0.448770000000     0.250490000000     0.679650000000     0.0505041  
H86      H      0.574330000000     0.315560000000     0.747470000000     0.0525965  
H87      H      0.624270000000     0.340310000000     0.691740000000     0.0497717  
H88      H      0.498440000000     0.275290000000     0.624010000000     0.0525825  
H89      H      0.262760000000     0.182680000000     0.862960000000     0.0508769  
H90      H      0.334710000000     0.271220000000     0.840870000000     0.0494952  
H91      H      0.250600000000     0.269450000000     0.861750000000     0.0501162  
H92      H      0.178320000000     0.180860000000     0.883660000000     0.0495716  
H93      H      0.356710000000     0.135720000000     0.757420000000     0.0509092  
H94      H      0.530400000000     0.173050000000     0.778580000000     0.0495123  
H95      H      0.528060000000     0.130910000000     0.755220000000     0.0502306  
H96      H      0.354270000000     0.093430000000     0.734250000000     0.0499992  
H97      H      0.867090000000     0.878790000000     0.068250000000     0.0506818  
H98      H      0.769060000000     0.801170000000     0.127390000000     0.0500966  
H99      H      0.852340000000     0.802860000000     0.149880000000     0.0515914  
H100     H      0.950640000000     0.880470000000     0.090760000000     0.0497768  
H101     H      0.284640000000     0.975000000000     0.134860000000     0.0492672  
H102     H      0.262150000000     0.949500000000     0.249660000000     0.0496542  
H103     H      0.177910000000     0.906500000000     0.233520000000     0.0499834  
H104     H      0.200660000000     0.931690000000     0.118580000000     0.0499326  
H105     H      0.065510000000     0.736990000000     0.264090000000     0.0494617  
H106     H      0.010860000000     0.783230000000     0.331280000000     0.0512442  
H107     H      0.008470000000     0.808500000000     0.276440000000     0.051997   
H108     H      0.063820000000     0.762570000000     0.209200000000     0.0499049  
H109     H      0.145630000000     0.780770000000     0.507020000000     0.0502085  
H110     H      0.978380000000     0.758190000000     0.982000000000     0.0516818  
H111     H      0.975890000000     0.783130000000     0.036810000000     0.0507828  
H112     H      0.143270000000     0.806170000000     0.062170000000     0.0500515  
H113     H      0.521790000000     0.540230000000     0.404710000000     0.0498048  
H114     H      0.605090000000     0.507320000000     0.339040000000     0.0518974  
H115     H      0.554120000000     0.507410000000     0.284310000000     0.0506466  
H116     H      0.470180000000     0.539910000000     0.350070000000     0.0493335  
H117     H      0.606610000000     0.578540000000     0.055410000000     0.0501584  
H118     H      0.548450000000     0.990590000000     0.073610000000     0.0510378  
H119     H      0.499390000000     0.991410000000     0.128540000000     0.0513586  
H120     H      0.556600000000     0.579310000000     0.110700000000     0.0501755  
H121     H      0.745070000000     0.939410000000     0.053690000000     0.0507024  
H122     H      0.596980000000     0.888060000000     0.491280000000     0.0504089  
H123     H      0.599850000000     0.930090000000     0.467160000000     0.051863   
H124     H      0.747850000000     0.981580000000     0.029580000000     0.0498787  
H125     H      0.805650000000     0.592470000000     0.381280000000     0.0497826  
H126     H      0.849320000000     0.606460000000     0.997170000000     0.0501563  
H127     H      0.937320000000     0.647400000000     0.980920000000     0.0491806  
H128     H      0.893170000000     0.633610000000     0.365100000000     0.0496351  
H129     H      0.669060000000     0.816690000000     0.429890000000     0.0501383  
H130     H      0.542610000000     0.752020000000     0.997660000000     0.0525683  
H131     H      0.491100000000     0.728190000000     0.442050000000     0.050246   
H132     H      0.617700000000     0.792750000000     0.374260000000     0.0526025  
H133     H      0.448780000000     0.750490000000     0.179650000000     0.0505107  
H134     H      0.574340000000     0.815560000000     0.247450000000     0.0526213  
H135     H      0.624280000000     0.840310000000     0.191730000000     0.049787   
H136     H      0.498450000000     0.775280000000     0.124000000000     0.0526009  
H137     H      0.262780000000     0.682690000000     0.362960000000     0.0508721  
H138     H      0.334740000000     0.771230000000     0.340870000000     0.0494729  
H139     H      0.250630000000     0.769460000000     0.361760000000     0.0501392  
H140     H      0.178340000000     0.680870000000     0.383670000000     0.0495948  
H141     H      0.356720000000     0.635730000000     0.257430000000     0.0509302  
H142     H      0.530420000000     0.673050000000     0.278580000000     0.0495292  
H143     H      0.528070000000     0.630910000000     0.255220000000     0.050242   
H144     H      0.354290000000     0.593430000000     0.234260000000     0.0500226  
H145     H      0.867080000000     0.878800000000     0.568280000000     0.0506608  
H146     H      0.769040000000     0.801160000000     0.627380000000     0.0500492  
H147     H      0.852320000000     0.802840000000     0.649860000000     0.0516149  
H148     H      0.950620000000     0.880480000000     0.590790000000     0.0497915  
H149     H      0.284620000000     0.974990000000     0.634860000000     0.0492718  
H150     H      0.262130000000     0.949490000000     0.749660000000     0.0496513  
H151     H      0.177900000000     0.906490000000     0.733520000000     0.0499706  
H152     H      0.200640000000     0.931690000000     0.618580000000     0.0498912  
H153     H      0.065450000000     0.736970000000     0.764080000000     0.0494216  
H154     H      0.010840000000     0.783220000000     0.831280000000     0.0512065  
H155     H      0.008460000000     0.808500000000     0.776440000000     0.0520459  
H156     H      0.063770000000     0.762560000000     0.709200000000     0.0499401  
H157     H      0.145630000000     0.780770000000     0.006990000000     0.0502271  
H158     H      0.978420000000     0.758220000000     0.481970000000     0.051668   
H159     H      0.975910000000     0.783160000000     0.536790000000     0.0508079  
H160     H      0.143260000000     0.806160000000     0.562190000000     0.0500502  
H161     H      0.521770000000     0.540220000000     0.904710000000     0.0497687  
H162     H      0.605070000000     0.507310000000     0.839040000000     0.0518679  
H163     H      0.554100000000     0.507400000000     0.784300000000     0.0506321  
H164     H      0.470160000000     0.539900000000     0.850070000000     0.0492908  
H165     H      0.606610000000     0.578550000000     0.555420000000     0.0501566  
H166     H      0.548450000000     0.990600000000     0.573610000000     0.0510318  
H167     H      0.499380000000     0.991410000000     0.628530000000     0.0513572  
H168     H      0.556600000000     0.579310000000     0.610710000000     0.0501774  
H169     H      0.745060000000     0.939420000000     0.553720000000     0.0506182  
H170     H      0.596970000000     0.888040000000     0.991270000000     0.0504699  
H171     H      0.599820000000     0.930070000000     0.967160000000     0.0517559  
H172     H      0.747860000000     0.981600000000     0.529600000000     0.0499066  
H173     H      0.805630000000     0.592450000000     0.881280000000     0.049776   
H174     H      0.849340000000     0.606480000000     0.497180000000     0.0501993  
H175     H      0.937340000000     0.647420000000     0.480920000000     0.049241   
H176     H      0.893140000000     0.633590000000     0.865090000000     0.0496244  
H177     H      0.669070000000     0.816680000000     0.929890000000     0.0500546  
H178     H      0.542600000000     0.752030000000     0.497670000000     0.0526611  
H179     H      0.491090000000     0.728190000000     0.942050000000     0.0502251  
H180     H      0.617690000000     0.792740000000     0.874250000000     0.0525905  
H181     H      0.448770000000     0.750490000000     0.679650000000     0.0505056  
H182     H      0.574320000000     0.815560000000     0.747470000000     0.0525989  
H183     H      0.624270000000     0.840310000000     0.691740000000     0.0497896  
H184     H      0.498440000000     0.775290000000     0.624010000000     0.0525883  
H185     H      0.262760000000     0.682680000000     0.862960000000     0.0508825  
H186     H      0.334710000000     0.771220000000     0.840870000000     0.0494976  
H187     H      0.250600000000     0.769450000000     0.861750000000     0.0501175  
H188     H      0.178320000000     0.680860000000     0.883660000000     0.0495771  
H189     H      0.356710000000     0.635720000000     0.757420000000     0.0508946  
H190     H      0.530400000000     0.673050000000     0.778580000000     0.0494896  
H191     H      0.528050000000     0.630910000000     0.755220000000     0.0502546  
H192     H      0.354270000000     0.593430000000     0.734250000000     0.0500306  
In1      In     0.447950000000     0.229710000000     0.311120000000     2.39234    
In2      In     0.664500000000     0.029740000000     0.967050000000     2.3943     
In3      In     0.059020000000     0.221520000000     0.397420000000     2.39786    
In4      In     0.435180000000     0.033510000000     0.217580000000     2.39864    
In5      In     0.667900000000     0.337780000000     0.061060000000     2.39956    
In6      In     0.048060000000     0.337440000000     0.148040000000     2.39326    
In7      In     0.447930000000     0.229700000000     0.811120000000     2.39214    
In8      In     0.664510000000     0.029750000000     0.467060000000     2.39444    
In9      In     0.058990000000     0.221510000000     0.897410000000     2.3978     
In10     In     0.435160000000     0.033510000000     0.717580000000     2.3987     
In11     In     0.667880000000     0.337790000000     0.561070000000     2.39954    
In12     In     0.048040000000     0.337440000000     0.648040000000     2.3934     
In13     In     0.447960000000     0.729710000000     0.311120000000     2.39235    
In14     In     0.664500000000     0.529740000000     0.967050000000     2.39442    
In15     In     0.059030000000     0.721520000000     0.397420000000     2.39793    
In16     In     0.435180000000     0.533510000000     0.217580000000     2.39894    
In17     In     0.667900000000     0.837780000000     0.061060000000     2.39944    
In18     In     0.048060000000     0.837440000000     0.148040000000     2.39339    
In19     In     0.447930000000     0.729700000000     0.811120000000     2.39237    
In20     In     0.664520000000     0.529750000000     0.467060000000     2.39455    
In21     In     0.058990000000     0.721510000000     0.897410000000     2.39804    
In22     In     0.435170000000     0.533510000000     0.717580000000     2.3986     
In23     In     0.667880000000     0.837790000000     0.561070000000     2.39964    
In24     In     0.048040000000     0.837440000000     0.648040000000     2.39315    
O1       O      0.466260000000     0.226940000000     0.372310000000    -0.484804   
O2       O      0.530040000000     0.257850000000     0.339120000000    -0.470974   
O3       O      0.395110000000     0.249750000000     0.322420000000    -0.49173    
O4       O      0.444400000000     0.238600000000     0.249620000000    -0.485248   
O5       O      0.487380000000     0.202930000000     0.299230000000    -0.491193   
O6       O      0.502870000000     0.271740000000     0.283150000000    -0.46929    
O7       O      0.362600000000     0.207170000000     0.337470000000    -0.479541   
O8       O      0.403940000000     0.186290000000     0.284300000000    -0.478472   
O9       O      0.602560000000     0.038450000000     0.437810000000    -0.485996   
O10      O      0.631080000000     0.514590000000     0.408910000000    -0.472141   
O11      O      0.747780000000     0.067460000000     0.982980000000    -0.478329   
O12      O      0.643950000000     0.054830000000     0.008640000000    -0.470795   
O13      O      0.635720000000     0.483150000000     0.463600000000    -0.477753   
O14      O      0.604700000000     0.510630000000     0.014720000000    -0.493028   
O15      O      0.733310000000     0.056120000000     0.426290000000    -0.490478   
O16      O      0.708090000000     0.508760000000     0.994390000000    -0.487438   
O17      O      0.052560000000     0.224180000000     0.334480000000    -0.480786   
O18      O      0.041610000000     0.252770000000     0.367710000000    -0.478377   
O19      O      0.150520000000     0.245140000000     0.384650000000    -0.488147   
O20      O      0.101290000000     0.247450000000     0.449350000000    -0.47765    
O21      O      0.979960000000     0.181680000000     0.381020000000    -0.486587   
O22      O      0.022620000000     0.241020000000     0.434880000000    -0.481839   
O23      O      0.112500000000     0.201120000000     0.392140000000    -0.488409   
O24      O      0.009910000000     0.183870000000     0.435520000000    -0.487711   
O25      O      0.470050000000     0.514300000000     0.178220000000    -0.483872   
O26      O      0.488090000000     0.055880000000     0.166700000000    -0.477413   
O27      O      0.357140000000     0.492980000000     0.233400000000    -0.487337   
O28      O      0.441800000000     0.531000000000     0.280500000000    -0.482474   
O29      O      0.481260000000     0.080240000000     0.230430000000    -0.486235   
O30      O      0.495280000000     0.023590000000     0.247150000000    -0.479874   
O31      O      0.360060000000     0.509990000000     0.180180000000    -0.486848   
O32      O      0.394820000000     0.060460000000     0.224050000000    -0.487443   
O33      O      0.585740000000     0.310090000000     0.089020000000    -0.475044   
O34      O      0.648430000000     0.342110000000     0.121590000000    -0.485158   
O35      O      0.761330000000     0.357370000000     0.062200000000    -0.481392   
O36      O      0.674910000000     0.328140000000     0.000260000000    -0.484812   
O37      O      0.705100000000     0.385460000000     0.059790000000    -0.479766   
O38      O      0.613560000000     0.295750000000     0.033180000000    -0.473544   
O39      O      0.713760000000     0.319060000000     0.090800000000    -0.492825   
O40      O      0.631250000000     0.360660000000     0.030170000000    -0.49173    
O41      O      0.012180000000     0.309290000000     0.097900000000    -0.49343    
O42      O      0.097450000000     0.326390000000     0.107470000000    -0.471798   
O43      O      0.956470000000     0.321730000000     0.151960000000    -0.479073   
O44      O      0.020540000000     0.321220000000     0.206710000000    -0.472671   
O45      O      0.121530000000     0.380150000000     0.131920000000    -0.478522   
O46      O      0.060910000000     0.303930000000     0.175930000000    -0.484309   
O47      O      0.005680000000     0.360150000000     0.123770000000    -0.486685   
O48      O      0.103030000000     0.371580000000     0.188970000000    -0.490156   
O49      O      0.466240000000     0.226940000000     0.872310000000    -0.484857   
O50      O      0.530030000000     0.257840000000     0.839120000000    -0.470951   
O51      O      0.395080000000     0.249750000000     0.822430000000    -0.49137    
O52      O      0.444380000000     0.238600000000     0.749630000000    -0.485299   
O53      O      0.487360000000     0.202920000000     0.799240000000    -0.491164   
O54      O      0.502850000000     0.271740000000     0.783160000000    -0.469103   
O55      O      0.362580000000     0.207160000000     0.837470000000    -0.479486   
O56      O      0.403930000000     0.186290000000     0.784300000000    -0.478611   
O57      O      0.602540000000     0.038430000000     0.937800000000    -0.48634    
O58      O      0.631060000000     0.514580000000     0.908900000000    -0.472281   
O59      O      0.747800000000     0.067480000000     0.482990000000    -0.478077   
O60      O      0.643960000000     0.054850000000     0.508640000000    -0.470681   
O61      O      0.635690000000     0.483130000000     0.963600000000    -0.477652   
O62      O      0.604710000000     0.510640000000     0.514720000000    -0.493098   
O63      O      0.733300000000     0.056110000000     0.926290000000    -0.490732   
O64      O      0.708110000000     0.508780000000     0.494400000000    -0.487521   
O65      O      0.052520000000     0.224170000000     0.834480000000    -0.48093    
O66      O      0.041580000000     0.252760000000     0.867710000000    -0.478488   
O67      O      0.150490000000     0.245130000000     0.884640000000    -0.488132   
O68      O      0.101270000000     0.247450000000     0.949340000000    -0.477701   
O69      O      0.979940000000     0.181660000000     0.881010000000    -0.486475   
O70      O      0.022580000000     0.241000000000     0.934880000000    -0.481707   
O71      O      0.112470000000     0.201110000000     0.892140000000    -0.488405   
O72      O      0.009890000000     0.183860000000     0.935520000000    -0.487582   
O73      O      0.470040000000     0.514300000000     0.678220000000    -0.483856   
O74      O      0.488080000000     0.055880000000     0.666700000000    -0.477515   
O75      O      0.357120000000     0.492970000000     0.733400000000    -0.487151   
O76      O      0.441790000000     0.530990000000     0.780500000000    -0.482572   
O77      O      0.481250000000     0.080240000000     0.730430000000    -0.486223   
O78      O      0.495260000000     0.023590000000     0.747150000000    -0.479934   
O79      O      0.360040000000     0.509990000000     0.680180000000    -0.486672   
O80      O      0.394810000000     0.060460000000     0.724050000000    -0.487534   
O81      O      0.585730000000     0.310100000000     0.589030000000    -0.475231   
O82      O      0.648420000000     0.342110000000     0.621600000000    -0.485291   
O83      O      0.761320000000     0.357380000000     0.562210000000    -0.481193   
O84      O      0.674900000000     0.328150000000     0.500270000000    -0.484837   
O85      O      0.705090000000     0.385470000000     0.559810000000    -0.479795   
O86      O      0.613540000000     0.295760000000     0.533190000000    -0.473531   
O87      O      0.713740000000     0.319060000000     0.590800000000    -0.492625   
O88      O      0.631240000000     0.360670000000     0.530180000000    -0.491852   
O89      O      0.012170000000     0.309300000000     0.597890000000    -0.49333    
O90      O      0.097440000000     0.326390000000     0.607490000000    -0.47178    
O91      O      0.956450000000     0.321720000000     0.651960000000    -0.479109   
O92      O      0.020520000000     0.321220000000     0.706720000000    -0.472457   
O93      O      0.121500000000     0.380140000000     0.631930000000    -0.478918   
O94      O      0.060870000000     0.303920000000     0.675930000000    -0.484243   
O95      O      0.005660000000     0.360150000000     0.623780000000    -0.486612   
O96      O      0.103020000000     0.371580000000     0.688970000000    -0.490328   
O97      O      0.466260000000     0.726940000000     0.372310000000    -0.484826   
O98      O      0.530040000000     0.757850000000     0.339120000000    -0.471045   
O99      O      0.395110000000     0.749750000000     0.322420000000    -0.491643   
O100     O      0.444400000000     0.738600000000     0.249620000000    -0.485223   
O101     O      0.487380000000     0.702930000000     0.299230000000    -0.491279   
O102     O      0.502870000000     0.771740000000     0.283150000000    -0.469298   
O103     O      0.362600000000     0.707170000000     0.337470000000    -0.479468   
O104     O      0.403940000000     0.686290000000     0.284300000000    -0.478458   
O105     O      0.602560000000     0.538450000000     0.437810000000    -0.485902   
O106     O      0.631080000000     0.014590000000     0.408910000000    -0.472195   
O107     O      0.747780000000     0.567460000000     0.982980000000    -0.47833    
O108     O      0.643950000000     0.554830000000     0.008640000000    -0.470807   
O109     O      0.635720000000     0.983150000000     0.463600000000    -0.477667   
O110     O      0.604700000000     0.010630000000     0.014720000000    -0.493076   
O111     O      0.733310000000     0.556120000000     0.426290000000    -0.490532   
O112     O      0.708090000000     0.008760000000     0.994390000000    -0.487597   
O113     O      0.052560000000     0.724180000000     0.334480000000    -0.480779   
O114     O      0.041610000000     0.752770000000     0.367710000000    -0.478295   
O115     O      0.150520000000     0.745140000000     0.384650000000    -0.488238   
O116     O      0.101290000000     0.747450000000     0.449350000000    -0.477701   
O117     O      0.979960000000     0.681680000000     0.381020000000    -0.486536   
O118     O      0.022620000000     0.741020000000     0.434870000000    -0.48171    
O119     O      0.112500000000     0.701120000000     0.392140000000    -0.488507   
O120     O      0.009910000000     0.683870000000     0.435520000000    -0.487709   
O121     O      0.470050000000     0.014300000000     0.178220000000    -0.483966   
O122     O      0.488090000000     0.555880000000     0.166700000000    -0.477561   
O123     O      0.357140000000     0.992980000000     0.233400000000    -0.487248   
O124     O      0.441800000000     0.030990000000     0.280500000000    -0.482583   
O125     O      0.481260000000     0.580240000000     0.230430000000    -0.486225   
O126     O      0.495280000000     0.523600000000     0.247150000000    -0.480009   
O127     O      0.360060000000     0.009990000000     0.180180000000    -0.486987   
O128     O      0.394820000000     0.560460000000     0.224050000000    -0.48743    
O129     O      0.585750000000     0.810090000000     0.089020000000    -0.475142   
O130     O      0.648430000000     0.842110000000     0.121590000000    -0.485184   
O131     O      0.761330000000     0.857370000000     0.062200000000    -0.481208   
O132     O      0.674910000000     0.828140000000     0.000260000000    -0.484802   
O133     O      0.705100000000     0.885460000000     0.059790000000    -0.479752   
O134     O      0.613560000000     0.795750000000     0.033180000000    -0.47352    
O135     O      0.713760000000     0.819050000000     0.090800000000    -0.49258    
O136     O      0.631250000000     0.860660000000     0.030170000000    -0.491712   
O137     O      0.012180000000     0.809290000000     0.097900000000    -0.493367   
O138     O      0.097450000000     0.826390000000     0.107470000000    -0.471837   
O139     O      0.956480000000     0.821730000000     0.151960000000    -0.47915    
O140     O      0.020540000000     0.821220000000     0.206710000000    -0.472674   
O141     O      0.121530000000     0.880150000000     0.131920000000    -0.478536   
O142     O      0.060910000000     0.803930000000     0.175930000000    -0.48432    
O143     O      0.005680000000     0.860150000000     0.123770000000    -0.486681   
O144     O      0.103030000000     0.871580000000     0.188970000000    -0.490186   
O145     O      0.466240000000     0.726940000000     0.872310000000    -0.484884   
O146     O      0.530020000000     0.757840000000     0.839120000000    -0.471026   
O147     O      0.395080000000     0.749750000000     0.822430000000    -0.491397   
O148     O      0.444380000000     0.738600000000     0.749620000000    -0.485182   
O149     O      0.487350000000     0.702920000000     0.799230000000    -0.491384   
O150     O      0.502850000000     0.771730000000     0.783160000000    -0.469281   
O151     O      0.362580000000     0.707160000000     0.837470000000    -0.479508   
O152     O      0.403930000000     0.686290000000     0.784300000000    -0.47871    
O153     O      0.602540000000     0.538430000000     0.937800000000    -0.486336   
O154     O      0.631060000000     0.014580000000     0.908900000000    -0.472318   
O155     O      0.747800000000     0.567480000000     0.482990000000    -0.478139   
O156     O      0.643960000000     0.554850000000     0.508640000000    -0.470635   
O157     O      0.635690000000     0.983130000000     0.963600000000    -0.477593   
O158     O      0.604710000000     0.010640000000     0.514720000000    -0.493205   
O159     O      0.733300000000     0.556110000000     0.926290000000    -0.490726   
O160     O      0.708110000000     0.008780000000     0.494400000000    -0.487581   
O161     O      0.052520000000     0.724170000000     0.834480000000    -0.480951   
O162     O      0.041580000000     0.752760000000     0.867710000000    -0.478508   
O163     O      0.150480000000     0.745130000000     0.884640000000    -0.488176   
O164     O      0.101270000000     0.747450000000     0.949340000000    -0.47774    
O165     O      0.979940000000     0.681660000000     0.881010000000    -0.486563   
O166     O      0.022580000000     0.741000000000     0.934880000000    -0.481787   
O167     O      0.112470000000     0.701110000000     0.892140000000    -0.488372   
O168     O      0.009890000000     0.683860000000     0.935510000000    -0.487712   
O169     O      0.470040000000     0.014300000000     0.678220000000    -0.483828   
O170     O      0.488080000000     0.555880000000     0.666700000000    -0.477544   
O171     O      0.357120000000     0.992980000000     0.733400000000    -0.487297   
O172     O      0.441790000000     0.030990000000     0.780500000000    -0.482611   
O173     O      0.481250000000     0.580240000000     0.730430000000    -0.486206   
O174     O      0.495260000000     0.523590000000     0.747150000000    -0.480007   
O175     O      0.360050000000     0.009990000000     0.680180000000    -0.487084   
O176     O      0.394810000000     0.560460000000     0.724050000000    -0.487409   
O177     O      0.585730000000     0.810100000000     0.589030000000    -0.475196   
O178     O      0.648420000000     0.842110000000     0.621600000000    -0.485337   
O179     O      0.761320000000     0.857380000000     0.562210000000    -0.48119    
O180     O      0.674910000000     0.828150000000     0.500270000000    -0.484765   
O181     O      0.705090000000     0.885470000000     0.559810000000    -0.479745   
O182     O      0.613540000000     0.795760000000     0.533190000000    -0.473518   
O183     O      0.713740000000     0.819060000000     0.590800000000    -0.492625   
O184     O      0.631250000000     0.860670000000     0.530180000000    -0.491889   
O185     O      0.012170000000     0.809300000000     0.597890000000    -0.49325    
O186     O      0.097440000000     0.826390000000     0.607490000000    -0.471738   
O187     O      0.956450000000     0.821720000000     0.651960000000    -0.479136   
O188     O      0.020520000000     0.821220000000     0.706720000000    -0.472388   
O189     O      0.121510000000     0.880150000000     0.631930000000    -0.478709   
O190     O      0.060880000000     0.803920000000     0.675930000000    -0.48409    
O191     O      0.005660000000     0.860150000000     0.623780000000    -0.486648   
O192     O      0.103010000000     0.871580000000     0.688970000000    -0.490237   


