data_structure

_audit_creation_method RASPA-1.0
_audit_creation_date 2023-5-22
_audit_author_name 'Poobodin Mano'

_cell_length_a    33.5146
_cell_length_b    33.5027
_cell_length_c    44.0487
_cell_angle_alpha 90.0002
_cell_angle_beta  89.9999
_cell_angle_gamma 119.991
_cell_volume      42836.8

_symmetry_cell_setting          triclinic
_symmetry_space_group_name_Hall 'P 1'
_symmetry_space_group_name_H-M  'P 1'
_symmetry_Int_Tables_number     1

_symmetry_equiv_pos_as_xyz 'x,y,z'

loop_
_atom_site_label
_atom_site_type_symbol
_atom_site_fract_x
_atom_site_fract_y
_atom_site_fract_z
_atom_site_charge
C1       C      0.909710000000     0.815320000000     0.784460000000     0.350962   
C2       C      0.978730000000     0.747600000000     0.734750000000     0.340789   
C3       C      0.046850000000     0.885930000000     0.784760000000     0.34962    
C4       C      0.982170000000     0.744560000000     0.829490000000     0.342297   
C5       C      0.875030000000     0.049090000000     0.785480000000     0.354076   
C6       C      0.738000000000     0.979790000000     0.735850000000     0.346856   
C7       C      0.808520000000     0.911840000000     0.785220000000     0.350433   
C8       C      0.732110000000     0.976610000000     0.830590000000     0.348587   
C9       C      0.143220000000     0.083660000000     0.784970000000     0.351525   
C10      C      0.210920000000     0.220760000000     0.735770000000     0.347394   
C11      C      0.072670000000     0.150310000000     0.785720000000     0.342487   
C12      C      0.214020000000     0.226610000000     0.830520000000     0.348794   
C13      C      0.669560000000     0.669770000000     0.117090000000     0.352701   
C14      C      0.574690000000     0.568110000000     0.044590000000     0.357096   
C15      C      0.644650000000     0.711910000000     0.025500000000     0.317303   
C16      C      0.730040000000     0.645250000000     0.041740000000     0.353171   
C17      C      0.981180000000     0.661170000000     0.943650000000     0.344343   
C18      C      0.968240000000     0.555290000000     0.015550000000     0.353326   
C19      C      0.047180000000     0.696450000000     0.036120000000     0.317703   
C20      C      0.896160000000     0.639360000000     0.016850000000     0.353373   
C21      C      0.650170000000     0.977970000000     0.944850000000     0.350402   
C22      C      0.557460000000     0.991360000000     0.016590000000     0.350229   
C23      C      0.619600000000     0.912490000000     0.037550000000     0.317516   
C24      C      0.713640000000     0.063390000000     0.017730000000     0.353855   
C25      C      0.970950000000     0.290190000000     0.116970000000     0.346349   
C26      C      0.964200000000     0.385090000000     0.044340000000     0.35524    
C27      C      0.037880000000     0.315050000000     0.025330000000     0.324942   
C28      C      0.885870000000     0.229670000000     0.041820000000     0.353025   
C29      C      0.297970000000     0.308980000000     0.944570000000     0.350644   
C30      C      0.404300000000     0.402030000000     0.016190000000     0.350286   
C31      C      0.263290000000     0.340050000000     0.037140000000     0.317801   
C32      C      0.320140000000     0.245920000000     0.017710000000     0.353735   
C33      C      0.289550000000     0.988480000000     0.117590000000     0.352488   
C34      C      0.391350000000     0.995540000000     0.045100000000     0.357464   
C35      C      0.247600000000     0.921800000000     0.025910000000     0.3181     
C36      C      0.314220000000     0.073780000000     0.042380000000     0.353224   
C37      C      0.808970000000     0.881380000000     0.284840000000     0.351259   
C38      C      0.741300000000     0.744520000000     0.235340000000     0.347205   
C39      C      0.879390000000     0.814560000000     0.285390000000     0.34805    
C40      C      0.737850000000     0.738330000000     0.330100000000     0.348734   
C41      C      0.042260000000     0.149450000000     0.284590000000     0.350436   
C42      C      0.973470000000     0.217520000000     0.234980000000     0.340441   
C43      C      0.905170000000     0.079110000000     0.284880000000     0.350602   
C44      C      0.970320000000     0.220620000000     0.329690000000     0.342094   
C45      C      0.077030000000     0.915600000000     0.285200000000     0.35397    
C46      C      0.214060000000     0.985120000000     0.235620000000     0.346763   
C47      C      0.143370000000     0.052830000000     0.285140000000     0.350456   
C48      C      0.219990000000     0.988240000000     0.330350000000     0.348577   
C49      C      0.654110000000     0.656310000000     0.444250000000     0.352023   
C50      C      0.548310000000     0.563710000000     0.516250000000     0.356429   
C51      C      0.689730000000     0.625920000000     0.536670000000     0.317742   
C52      C      0.632460000000     0.719680000000     0.517600000000     0.353888   
C53      C      0.981280000000     0.675100000000     0.616680000000     0.346252   
C54      C      0.987900000000     0.579990000000     0.544210000000     0.357312   
C55      C      0.914400000000     0.650120000000     0.524960000000     0.317722   
C56      C      0.066380000000     0.735470000000     0.541570000000     0.351708   
C57      C      0.283060000000     0.296190000000     0.617730000000     0.352616   
C58      C      0.377830000000     0.398000000000     0.545100000000     0.357554   
C59      C      0.308030000000     0.254390000000     0.526030000000     0.318507   
C60      C      0.222370000000     0.320700000000     0.542620000000     0.353054   
C61      C      0.302140000000     0.987070000000     0.444570000000     0.350916   
C62      C      0.394850000000     0.973750000000     0.516410000000     0.355972   
C63      C      0.332760000000     0.052630000000     0.537230000000     0.318167   
C64      C      0.238660000000     0.901690000000     0.517450000000     0.35423    
C65      C      0.971400000000     0.304130000000     0.443820000000     0.345241   
C66      C      0.983650000000     0.409610000000     0.515710000000     0.35623    
C67      C      0.904820000000     0.267880000000     0.536060000000     0.316971   
C68      C      0.055940000000     0.325890000000     0.517490000000     0.353047   
C69      C      0.662700000000     0.976770000000     0.617820000000     0.352303   
C70      C      0.561010000000     0.969800000000     0.545180000000     0.357879   
C71      C      0.704760000000     0.043730000000     0.526230000000     0.317997   
C72      C      0.638210000000     0.891670000000     0.542520000000     0.353278   
C73      C      0.984960000000     0.206580000000     0.456760000000    -0.0436516  
C74      C      0.031470000000     0.237120000000     0.450620000000     0.02534    
C75      C      0.050950000000     0.233430000000     0.423440000000    -0.0441239  
C76      C      0.023920000000     0.199140000000     0.402400000000    -0.0258714  
C77      C      0.977420000000     0.168630000000     0.408550000000     0.00672651 
C78      C      0.957920000000     0.172360000000     0.435710000000    -0.0335054  
C79      C      0.506780000000     0.972870000000     0.507490000000    -0.00383528 
C80      C      0.518120000000     0.970050000000     0.537830000000    -0.0781752  
C81      C      0.488360000000     0.967900000000     0.561020000000    -0.00429254 
C82      C      0.448050000000     0.968630000000     0.554010000000    -0.00450921 
C83      C      0.436940000000     0.971920000000     0.523700000000    -0.0771816  
C84      C      0.466660000000     0.973990000000     0.500500000000    -0.00496672 
C85      C      0.140340000000     0.916250000000     0.400530000000    -0.0373757  
C86      C      0.152590000000     0.962250000000     0.405240000000     0.0182946  
C87      C      0.175330000000     0.984790000000     0.431900000000    -0.0401142  
C88      C      0.185760000000     0.961280000000     0.453900000000    -0.0329296  
C89      C      0.173540000000     0.915280000000     0.449200000000     0.0152869  
C90      C      0.150850000000     0.892760000000     0.422520000000    -0.037792   
C91      C      0.137520000000     0.280910000000     0.532870000000    -0.00525944 
C92      C      0.179940000000     0.321990000000     0.535610000000    -0.0746763  
C93      C      0.181290000000     0.364350000000     0.532300000000    -0.0051526  
C94      C      0.140920000000     0.365620000000     0.526570000000    -0.0048504  
C95      C      0.098480000000     0.324550000000     0.523940000000    -0.0754739  
C96      C      0.097180000000     0.282180000000     0.527010000000    -0.00504369 
C97      C      0.985620000000     0.522960000000     0.506580000000    -0.00438578 
C98      C      0.987520000000     0.536760000000     0.536930000000    -0.0787441  
C99      C      0.988630000000     0.508690000000     0.560210000000    -0.00482568 
C100     C      0.987800000000     0.467560000000     0.553270000000    -0.00467232 
C101     C      0.985460000000     0.453540000000     0.522930000000    -0.0783032  
C102     C      0.984410000000     0.481650000000     0.499660000000    -0.00509517 
C103     C      0.151040000000     0.776190000000     0.531130000000    -0.00591061 
C104     C      0.110230000000     0.777830000000     0.534690000000    -0.0734887  
C105     C      0.111930000000     0.820480000000     0.532410000000    -0.00594626 
C106     C      0.153700000000     0.860770000000     0.526810000000    -0.00440803 
C107     C      0.194580000000     0.859180000000     0.523530000000    -0.0770316  
C108     C      0.192840000000     0.816500000000     0.525650000000    -0.00424215 
C109     C      0.434870000000     0.452420000000     0.507360000000    -0.00394695 
C110     C      0.421040000000     0.440790000000     0.537730000000    -0.0780102  
C111     C      0.449090000000     0.470170000000     0.560940000000    -0.00442871 
C112     C      0.490240000000     0.510350000000     0.553910000000    -0.00430604 
C113     C      0.504310000000     0.521730000000     0.523560000000    -0.077424   
C114     C      0.476210000000     0.492410000000     0.500350000000    -0.00476959 
C115     C      0.676380000000     0.804620000000     0.527160000000    -0.00503754 
C116     C      0.633960000000     0.763690000000     0.523920000000    -0.0765735  
C117     C      0.592990000000     0.765290000000     0.526310000000    -0.0047465  
C118     C      0.594400000000     0.807010000000     0.531990000000    -0.00544984 
C119     C      0.636800000000     0.847890000000     0.535490000000    -0.0749548  
C120     C      0.677790000000     0.846320000000     0.532970000000    -0.00566002 
C121     C      0.784150000000     0.776970000000     0.434800000000    -0.0396335  
C122     C      0.787030000000     0.800070000000     0.407740000000     0.0164487  
C123     C      0.755680000000     0.815130000000     0.401890000000    -0.0373534  
C124     C      0.721410000000     0.807080000000     0.423140000000    -0.0381156  
C125     C      0.718570000000     0.784030000000     0.450230000000     0.015162   
C126     C      0.749940000000     0.768990000000     0.456070000000    -0.0328128  
C127     C      0.269380000000     0.029930000000     0.374920000000    -0.00550465 
C128     C      0.246510000000     0.989540000000     0.357460000000    -0.0766341  
C129     C      0.246220000000     0.949600000000     0.367460000000    -0.00620446 
C130     C      0.266570000000     0.949470000000     0.395140000000    -0.00503995 
C131     C      0.287170000000     0.989160000000     0.413390000000    -0.0772582  
C132     C      0.289320000000     0.029680000000     0.402710000000    -0.00548898 
C133     C      0.928420000000     0.229670000000     0.373640000000    -0.0056009  
C134     C      0.969200000000     0.246050000000     0.356740000000    -0.0810072  
C135     C      0.009610000000     0.284690000000     0.367270000000    -0.00127849 
C136     C      0.009740000000     0.305210000000     0.394920000000     0.000154906
C137     C      0.969560000000     0.287180000000     0.412640000000    -0.0816934  
C138     C      0.928650000000     0.249920000000     0.401410000000    -0.00526849 
C139     C      0.111920000000     0.096460000000     0.312680000000    -0.00570582 
C140     C      0.124530000000     0.084380000000     0.285230000000    -0.0757481  
C141     C      0.114620000000     0.098850000000     0.257740000000    -0.00548142 
C142     C      0.089940000000     0.122330000000     0.257620000000    -0.00490866 
C143     C      0.074900000000     0.131950000000     0.284990000000    -0.0761764  
C144     C      0.087400000000     0.120130000000     0.312570000000    -0.0055803  
C145     C      0.652910000000     0.693010000000     0.395120000000    -0.00499485 
C146     C      0.671150000000     0.671270000000     0.413070000000    -0.0773025  
C147     C      0.708690000000     0.667920000000     0.402070000000    -0.00555294 
C148     C      0.728990000000     0.687840000000     0.374290000000    -0.00589977 
C149     C      0.712380000000     0.711840000000     0.357150000000    -0.0765     
C150     C      0.673480000000     0.713300000000     0.367460000000    -0.00641906 
C151     C      0.954310000000     0.846150000000     0.313140000000    -0.0182761  
C152     C      0.929750000000     0.833270000000     0.285640000000    -0.0697868  
C153     C      0.954230000000     0.842860000000     0.258210000000    -0.0180529  
C154     C      0.002370000000     0.867520000000     0.258180000000     0.00720863 
C155     C      0.026910000000     0.882860000000     0.285580000000    -0.0835747  
C156     C      0.002490000000     0.870640000000     0.313110000000     0.00640943 
C157     C      0.838210000000     0.956000000000     0.312650000000    -0.00670041 
C158     C      0.826330000000     0.931520000000     0.285130000000    -0.0769878  
C159     C      0.835740000000     0.956010000000     0.257700000000    -0.00603621 
C160     C      0.859080000000     0.004170000000     0.257700000000    -0.00522506 
C161     C      0.873650000000     0.028720000000     0.285120000000    -0.0770544  
C162     C      0.861770000000     0.004190000000     0.312640000000    -0.00555595 
C163     C      0.239130000000     0.945070000000     0.161490000000    -0.00432468 
C164     C      0.274080000000     0.986630000000     0.149230000000    -0.0770618  
C165     C      0.291750000000     0.027060000000     0.166680000000    -0.00385391 
C166     C      0.273300000000     0.026330000000     0.195290000000    -0.00585327 
C167     C      0.237130000000     0.985080000000     0.207050000000    -0.0735401  
C168     C      0.220960000000     0.944260000000     0.190190000000    -0.00581598 
C169     C      0.359540000000     0.200160000000     0.026050000000    -0.00486829 
C170     C      0.318610000000     0.201880000000     0.023960000000    -0.0771867  
C171     C      0.276170000000     0.161020000000     0.027430000000    -0.00513157 
C172     C      0.274720000000     0.119290000000     0.033170000000    -0.00587048 
C173     C      0.315680000000     0.117600000000     0.035400000000    -0.074999   
C174     C      0.358090000000     0.158400000000     0.031670000000    -0.00581691 
C175     C      0.235890000000     0.158070000000     0.923600000000    -0.0381762  
C176     C      0.237360000000     0.181010000000     0.950460000000     0.0170095  
C177     C      0.204710000000     0.194580000000     0.955710000000    -0.0329024  
C178     C      0.170590000000     0.185250000000     0.934060000000    -0.0391169  
C179     C      0.169080000000     0.162270000000     0.907210000000     0.0181166  
C180     C      0.201710000000     0.148670000000     0.901970000000    -0.0371383  
C181     C      0.014630000000     0.265190000000     0.189580000000    -0.000623072
C182     C      0.973750000000     0.240750000000     0.206400000000    -0.0779915  
C183     C      0.932660000000     0.236020000000     0.194610000000    -0.00617669 
C184     C      0.932140000000     0.253890000000     0.166020000000    -0.0041863  
C185     C      0.972620000000     0.276440000000     0.148600000000    -0.0814592  
C186     C      0.014030000000     0.282690000000     0.160890000000     0.000889627
C187     C      0.485740000000     0.991200000000     0.000560000000    -0.00967753 
C188     C      0.515380000000     0.993240000000     0.023810000000    -0.0747255  
C189     C      0.504200000000     0.996560000000     0.054110000000    -0.00568461 
C190     C      0.463910000000     0.997350000000     0.061050000000    -0.0041279  
C191     C      0.434220000000     0.995240000000     0.037810000000    -0.0777815  
C192     C      0.445640000000     0.992390000000     0.007490000000    -0.00693874 
C193     C      0.759420000000     0.148580000000     0.025940000000    -0.00500786 
C194     C      0.757720000000     0.105920000000     0.023800000000    -0.0773361  
C195     C      0.798620000000     0.104360000000     0.027050000000    -0.00532009 
C196     C      0.840370000000     0.144660000000     0.032640000000    -0.00602947 
C197     C      0.842040000000     0.187300000000     0.034940000000    -0.0754274  
C198     C      0.801200000000     0.188900000000     0.031410000000    -0.0058162  
C199     C      0.968110000000     0.483510000000     0.999630000000     0.00854368 
C200     C      0.966430000000     0.511370000000     0.022840000000    -0.0852495  
C201     C      0.963510000000     0.497160000000     0.053180000000    -0.000989   
C202     C      0.962750000000     0.456090000000     0.060190000000    -0.00872194 
C203     C      0.964510000000     0.428270000000     0.036980000000    -0.0732855  
C204     C      0.966970000000     0.442250000000     0.006630000000    -0.0180744  
C205     C      0.888950000000     0.720410000000     0.921990000000    -0.0374471  
C206     C      0.911090000000     0.719650000000     0.948700000000     0.0154171  
C207     C      0.957230000000     0.752870000000     0.953560000000    -0.0303837  
C208     C      0.981250000000     0.786840000000     0.931660000000    -0.0483253  
C209     C      0.959100000000     0.787630000000     0.904960000000     0.0184171  
C210     C      0.912960000000     0.754440000000     0.900110000000    -0.0382122  
C211     C      0.517260000000     0.513740000000     0.007010000000    -0.00709518 
C212     C      0.531490000000     0.525240000000     0.037320000000    -0.0774979  
C213     C      0.503870000000     0.495660000000     0.060590000000    -0.00427666 
C214     C      0.462750000000     0.455370000000     0.053670000000    -0.00554871 
C215     C      0.448280000000     0.444100000000     0.023370000000    -0.0747978  
C216     C      0.475950000000     0.473640000000     0.000110000000    -0.00948296 
C217     C      0.775850000000     0.977920000000     0.932790000000    -0.0397824  
C218     C      0.798580000000     0.999860000000     0.905990000000     0.0170182  
C219     C      0.811370000000     0.045940000000     0.900950000000    -0.0368336  
C220     C      0.801390000000     0.070100000000     0.922740000000    -0.0385107  
C221     C      0.778700000000     0.048170000000     0.949560000000     0.0164846  
C222     C      0.765950000000     0.002090000000     0.954600000000    -0.0325118  
C223     C      0.814960000000     0.684770000000     0.032330000000    -0.00603702 
C224     C      0.772370000000     0.643800000000     0.034680000000    -0.0752671  
C225     C      0.770770000000     0.601370000000     0.031000000000    -0.00587658 
C226     C      0.811050000000     0.599930000000     0.025330000000    -0.00499383 
C227     C      0.853670000000     0.640890000000     0.023130000000    -0.077462   
C228     C      0.855230000000     0.683340000000     0.026530000000    -0.00536502 
C229     C      0.705720000000     0.667220000000     0.166190000000    -0.00435509 
C230     C      0.683130000000     0.685090000000     0.148750000000    -0.0769635  
C231     C      0.676580000000     0.720050000000     0.161080000000    -0.00453721 
C232     C      0.693820000000     0.738020000000     0.189840000000    -0.00598224 
C233     C      0.718300000000     0.721650000000     0.206690000000    -0.0734904  
C234     C      0.723330000000     0.685480000000     0.194850000000    -0.00631065 
C235     C      0.258540000000     0.227510000000     0.690300000000    -0.00577357 
C236     C      0.234030000000     0.243800000000     0.707190000000    -0.073287   
C237     C      0.229090000000     0.280080000000     0.695450000000    -0.00607817 
C238     C      0.246810000000     0.298520000000     0.666840000000    -0.00414654 
C239     C      0.269430000000     0.280720000000     0.649360000000    -0.0767134  
C240     C      0.275900000000     0.245660000000     0.661600000000    -0.00438973 
C241     C      0.278740000000     0.252280000000     0.867680000000    -0.00612544 
C242     C      0.239410000000     0.253110000000     0.857580000000    -0.0764114  
C243     C      0.222380000000     0.276560000000     0.874920000000    -0.00558562 
C244     C      0.242740000000     0.296560000000     0.902660000000    -0.00572891 
C245     C      0.280750000000     0.293870000000     0.913430000000    -0.0763079  
C246     C      0.299360000000     0.272670000000     0.895300000000    -0.00528679 
C247     C      0.731200000000     0.020780000000     0.690460000000    -0.00559086 
C248     C      0.714970000000     0.979920000000     0.707290000000    -0.073873   
C249     C      0.678770000000     0.938720000000     0.695490000000    -0.00613521 
C250     C      0.660370000000     0.938070000000     0.666880000000    -0.0043008  
C251     C      0.678110000000     0.978530000000     0.649460000000    -0.0771884  
C252     C      0.713080000000     0.020060000000     0.661760000000    -0.00429859 
C253     C      0.706110000000     0.015380000000     0.867750000000    -0.00573081 
C254     C      0.705640000000     0.975360000000     0.857710000000    -0.0767558  
C255     C      0.682660000000     0.934960000000     0.875150000000    -0.00557345 
C256     C      0.662770000000     0.935260000000     0.902950000000    -0.00585614 
C257     C      0.665110000000     0.975840000000     0.913670000000    -0.0766795  
C258     C      0.685820000000     0.015560000000     0.895430000000    -0.00490106 
C259     C      0.949690000000     0.097320000000     0.758490000000     0.0062033  
C260     C      0.925140000000     0.081830000000     0.785880000000    -0.0860854  
C261     C      0.949550000000     0.093950000000     0.813420000000     0.00550097 
C262     C      0.997730000000     0.118490000000     0.813460000000    -0.0305172  
C263     C      0.022310000000     0.131520000000     0.785970000000    -0.0511842  
C264     C      0.997830000000     0.122030000000     0.758540000000    -0.0303582  
C265     C      0.937600000000     0.700050000000     0.689310000000    -0.00582328 
C266     C      0.978460000000     0.724430000000     0.706150000000    -0.0781143  
C267     C      0.019550000000     0.729170000000     0.694350000000    -0.000858323
C268     C      0.020080000000     0.711350000000     0.665740000000     0.00110209 
C269     C      0.979610000000     0.688850000000     0.648310000000    -0.0814557  
C270     C      0.938210000000     0.682600000000     0.660600000000    -0.00438443 
C271     C      0.023970000000     0.736520000000     0.873870000000    -0.000226122
C272     C      0.983470000000     0.719270000000     0.856560000000    -0.0809192  
C273     C      0.943440000000     0.679840000000     0.866700000000    -0.00586771 
C274     C      0.943350000000     0.659360000000     0.894360000000    -0.00499907 
C275     C      0.983170000000     0.678210000000     0.912470000000    -0.0807962  
C276     C      0.023760000000     0.716310000000     0.901650000000    -0.000459571
C277     C      0.864360000000     0.844330000000     0.812510000000    -0.00579155 
C278     C      0.876990000000     0.832730000000     0.784910000000    -0.0776829  
C279     C      0.862040000000     0.842520000000     0.757550000000    -0.00509237 
C280     C      0.837340000000     0.865970000000     0.757720000000    -0.00623637 
C281     C      0.827320000000     0.880250000000     0.785250000000    -0.0760727  
C282     C      0.839820000000     0.867990000000     0.812680000000    -0.00638336 
C283     C      0.090340000000     0.960770000000     0.812590000000    -0.00673712 
C284     C      0.078390000000     0.936320000000     0.785050000000    -0.0745348  
C285     C      0.092940000000     0.960940000000     0.757650000000    -0.00662057 
C286     C      0.116340000000     0.009100000000     0.757720000000    -0.00374828 
C287     C      0.125830000000     0.033520000000     0.785190000000    -0.0773461  
C288     C      0.113960000000     0.008960000000     0.812670000000    -0.00443237 
H1       H      0.969930000000     0.209580000000     0.477760000000     0.0475721  
H2       H      0.086900000000     0.257200000000     0.418720000000     0.0484466  
H3       H      0.038820000000     0.196280000000     0.381300000000     0.0502505  
H4       H      0.921890000000     0.148800000000     0.440340000000     0.0457842  
H5       H      0.529100000000     0.974610000000     0.489130000000     0.0499882  
H6       H      0.496190000000     0.965630000000     0.584600000000     0.0500771  
H7       H      0.425810000000     0.967030000000     0.572380000000     0.0505003  
H8       H      0.458950000000     0.976490000000     0.476930000000     0.0502736  
H9       H      0.122920000000     0.898990000000     0.379810000000     0.0527986  
H10      H      0.184920000000     0.020440000000     0.435410000000     0.048221   
H11      H      0.203440000000     0.978670000000     0.474520000000     0.0471392  
H12      H      0.141570000000     0.857210000000     0.418920000000     0.0470305  
H13      H      0.135440000000     0.247750000000     0.535310000000     0.0515939  
H14      H      0.213480000000     0.396580000000     0.534360000000     0.0511004  
H15      H      0.142990000000     0.398780000000     0.524180000000     0.0514384  
H16      H      0.064980000000     0.249950000000     0.524940000000     0.0504801  
H17      H      0.984680000000     0.543890000000     0.488160000000     0.0492665  
H18      H      0.990170000000     0.518480000000     0.583800000000     0.0493181  
H19      H      0.988600000000     0.446560000000     0.571700000000     0.0496342  
H20      H      0.982670000000     0.471750000000     0.476070000000     0.0493303  
H21      H      0.150790000000     0.743810000000     0.532830000000     0.0516166  
H22      H      0.081010000000     0.822790000000     0.535040000000     0.0520839  
H23      H      0.153960000000     0.893160000000     0.525120000000     0.049575   
H24      H      0.223770000000     0.814200000000     0.523080000000     0.0508582  
H25      H      0.413960000000     0.430400000000     0.488990000000     0.0501303  
H26      H      0.439270000000     0.462120000000     0.584540000000     0.0501758  
H27      H      0.511230000000     0.532290000000     0.572290000000     0.0504591  
H28      H      0.486150000000     0.500350000000     0.476750000000     0.0502313  
H29      H      0.708530000000     0.804470000000     0.525280000000     0.0492325  
H30      H      0.559790000000     0.734300000000     0.523780000000     0.0508403  
H31      H      0.562240000000     0.807150000000     0.533870000000     0.0509382  
H32      H      0.710980000000     0.877300000000     0.535560000000     0.0508353  
H33      H      0.808350000000     0.765210000000     0.439200000000     0.0470735  
H34      H      0.757900000000     0.832800000000     0.380850000000     0.0518361  
H35      H      0.697000000000     0.818540000000     0.418660000000     0.0465364  
H36      H      0.747580000000     0.751050000000     0.477000000000     0.0464229  
H37      H      0.270140000000     0.061250000000     0.367780000000     0.0504265  
H38      H      0.228880000000     0.917990000000     0.354430000000     0.0483014  
H39      H      0.264250000000     0.917680000000     0.402850000000     0.0487782  
H40      H      0.305000000000     0.060790000000     0.416300000000     0.0502089  
H41      H      0.896740000000     0.199930000000     0.366090000000     0.0502352  
H42      H      0.041530000000     0.298090000000     0.354680000000     0.0481497  
H43      H      0.041820000000     0.333830000000     0.403060000000     0.0484061  
H44      H      0.897170000000     0.235320000000     0.414580000000     0.0498532  
H45      H      0.119250000000     0.085920000000     0.334240000000     0.0499212  
H46      H      0.124020000000     0.090170000000     0.236220000000     0.0514903  
H47      H      0.080990000000     0.131200000000     0.236010000000     0.0517752  
H48      H      0.076370000000     0.127190000000     0.334030000000     0.0485749  
H49      H      0.624070000000     0.696240000000     0.403080000000     0.0486807  
H50      H      0.723450000000     0.651350000000     0.415420000000     0.0498372  
H51      H      0.758940000000     0.686150000000     0.366910000000     0.0500856  
H52      H      0.659910000000     0.731520000000     0.354690000000     0.0483604  
H53      H      0.936340000000     0.839060000000     0.334640000000     0.0510141  
H54      H      0.936250000000     0.833250000000     0.236670000000     0.0526864  
H55      H      0.020280000000     0.876250000000     0.236600000000     0.0495146  
H56      H      0.020480000000     0.881910000000     0.334580000000     0.0461662  
H57      H      0.831320000000     0.938040000000     0.334150000000     0.0475765  
H58      H      0.826800000000     0.938060000000     0.236140000000     0.0508564  
H59      H      0.867610000000     0.022120000000     0.236130000000     0.0504323  
H60      H      0.872390000000     0.022200000000     0.334140000000     0.0488752  
H61      H      0.224950000000     0.913340000000     0.148590000000     0.0517399  
H62      H      0.318710000000     0.059620000000     0.157810000000     0.0501576  
H63      H      0.286540000000     0.058300000000     0.207820000000     0.0510114  
H64      H      0.193130000000     0.911920000000     0.198690000000     0.0524396  
H65      H      0.392750000000     0.231080000000     0.023340000000     0.050298   
H66      H      0.244050000000     0.161270000000     0.025770000000     0.0490288  
H67      H      0.241520000000     0.088380000000     0.035930000000     0.0511036  
H68      H      0.390220000000     0.158160000000     0.033320000000     0.0505909  
H69      H      0.261280000000     0.147740000000     0.919580000000     0.0473588  
H70      H      0.206000000000     0.212440000000     0.976470000000     0.0485001  
H71      H      0.145410000000     0.195880000000     0.937990000000     0.0487894  
H72      H      0.200540000000     0.131080000000     0.881100000000     0.0524368  
H73      H      0.046840000000     0.269420000000     0.198110000000     0.0518198  
H74      H      0.900660000000     0.217470000000     0.207110000000     0.0506859  
H75      H      0.899710000000     0.248570000000     0.157120000000     0.0498772  
H76      H      0.045780000000     0.300050000000     0.148020000000     0.0512711  
H77      H      0.493510000000     0.988690000000     0.977010000000     0.0538923  
H78      H      0.526390000000     0.998130000000     0.072510000000     0.0506397  
H79      H      0.456020000000     0.999640000000     0.084620000000     0.0498974  
H80      H      0.423370000000     0.990660000000     0.989100000000     0.0537361  
H81      H      0.728470000000     0.150850000000     0.023400000000     0.0502785  
H82      H      0.798380000000     0.071980000000     0.025340000000     0.0484856  
H83      H      0.871310000000     0.142390000000     0.035250000000     0.0501527  
H84      H      0.801430000000     0.221270000000     0.033120000000     0.0504577  
H85      H      0.970310000000     0.493570000000     0.976040000000     0.0471703  
H86      H      0.962210000000     0.517960000000     0.071550000000     0.0487111  
H87      H      0.960770000000     0.446140000000     0.083780000000     0.0503241  
H88      H      0.968410000000     0.421510000000     0.988260000000     0.0555595  
H89      H      0.853290000000     0.694580000000     0.918270000000     0.0469662  
H90      H      0.974320000000     0.752130000000     0.974200000000     0.0459353  
H91      H      0.017010000000     0.812460000000     0.935290000000     0.0542209  
H92      H      0.896000000000     0.755060000000     0.879360000000     0.0524567  
H93      H      0.537840000000     0.535920000000     0.988600000000     0.0537744  
H94      H      0.514010000000     0.503610000000     0.084150000000     0.0500253  
H95      H      0.442100000000     0.433270000000     0.072090000000     0.0507334  
H96      H      0.465690000000     0.465800000000     0.976550000000     0.0538501  
H97      H      0.765850000000     0.942220000000     0.936570000000     0.0479415  
H98      H      0.828780000000     0.062730000000     0.880120000000     0.0520983  
H99      H      0.811090000000     0.105700000000     0.918880000000     0.0469554  
H100     H      0.748280000000     0.985160000000     0.975320000000     0.0478648  
H101     H      0.817240000000     0.717990000000     0.035050000000     0.0503642  
H102     H      0.738430000000     0.569220000000     0.032740000000     0.0504816  
H103     H      0.808780000000     0.566710000000     0.022670000000     0.0501649  
H104     H      0.887570000000     0.715480000000     0.024780000000     0.0481566  
H105     H      0.711260000000     0.640250000000     0.157270000000     0.0499826  
H106     H      0.659160000000     0.734380000000     0.148200000000     0.0513732  
H107     H      0.689370000000     0.765870000000     0.198390000000     0.052007   
H108     H      0.741930000000     0.672090000000     0.207370000000     0.0507525  
H109     H      0.262940000000     0.199590000000     0.698780000000     0.0522041  
H110     H      0.210470000000     0.293410000000     0.708000000000     0.0513815  
H111     H      0.241330000000     0.325570000000     0.657990000000     0.0504332  
H112     H      0.293330000000     0.231380000000     0.648670000000     0.0516265  
H113     H      0.292630000000     0.234490000000     0.854750000000     0.0483541  
H114     H      0.192100000000     0.277760000000     0.867710000000     0.0509607  
H115     H      0.227680000000     0.312710000000     0.916160000000     0.0509398  
H116     H      0.328560000000     0.269940000000     0.903090000000     0.0490875  
H117     H      0.759050000000     0.053080000000     0.698980000000     0.0518251  
H118     H      0.665480000000     0.906720000000     0.708000000000     0.0509862  
H119     H      0.633390000000     0.905550000000     0.657990000000     0.0501816  
H120     H      0.727320000000     0.051800000000     0.648880000000     0.0512895  
H121     H      0.723540000000     0.047000000000     0.854740000000     0.0481289  
H122     H      0.681760000000     0.903590000000     0.867980000000     0.0505631  
H123     H      0.647000000000     0.904130000000     0.916520000000     0.0506712  
H124     H      0.688270000000     0.047400000000     0.903180000000     0.0490199  
H125     H      0.931790000000     0.088670000000     0.736920000000     0.0471917  
H126     H      0.931550000000     0.082570000000     0.834880000000     0.0441025  
H127     H      0.015690000000     0.125500000000     0.834960000000     0.0595226  
H128     H      0.015820000000     0.131760000000     0.737000000000     0.0609947  
H129     H      0.905390000000     0.695820000000     0.697830000000     0.0517718  
H130     H      0.051540000000     0.747680000000     0.706860000000     0.0507965  
H131     H      0.052520000000     0.716660000000     0.656850000000     0.0500017  
H132     H      0.906460000000     0.665270000000     0.647720000000     0.0511535  
H133     H      0.055350000000     0.766880000000     0.866630000000     0.0503023  
H134     H      0.911740000000     0.665780000000     0.853790000000     0.0480434  
H135     H      0.911500000000     0.630080000000     0.902190000000     0.0488703  
H136     H      0.054970000000     0.731540000000     0.915130000000     0.0505245  
H137     H      0.875320000000     0.837140000000     0.833950000000     0.0474488  
H138     H      0.871100000000     0.833800000000     0.735920000000     0.0505419  
H139     H      0.828030000000     0.874780000000     0.736230000000     0.0508257  
H140     H      0.832400000000     0.878390000000     0.834260000000     0.0494344  
H141     H      0.079740000000     0.942700000000     0.834080000000     0.0505442  
H142     H      0.084350000000     0.943050000000     0.736070000000     0.0519771  
H143     H      0.125260000000     0.027120000000     0.736180000000     0.0513577  
H144     H      0.120910000000     0.026860000000     0.834200000000     0.0482514  
In1      In     0.979350000000     0.796490000000     0.783620000000     2.38655    
In2      In     0.786600000000     0.979370000000     0.784570000000     2.40389    
In3      In     0.162060000000     0.172170000000     0.784540000000     2.40535    
In4      In     0.653330000000     0.647490000000     0.057470000000     2.39748    
In5      In     0.973200000000     0.636700000000     0.002830000000     2.37814    
In6      In     0.633840000000     0.986270000000     0.004000000000     2.39165    
In7      In     0.964890000000     0.306440000000     0.057360000000     2.38933    
In8      In     0.322790000000     0.325640000000     0.003690000000     2.39183    
In9      In     0.311950000000     0.994760000000     0.057990000000     2.39725    
In10     In     0.790040000000     0.792850000000     0.284220000000     2.40462    
In11     In     0.972770000000     0.168510000000     0.283800000000     2.38656    
In12     In     0.165420000000     0.985390000000     0.284360000000     2.40431    
In13     In     0.629790000000     0.639990000000     0.503470000000     2.40069    
In14     In     0.987320000000     0.658740000000     0.557090000000     2.3846     
In15     In     0.299240000000     0.318640000000     0.558130000000     2.39816    
In16     In     0.318480000000     0.978800000000     0.503730000000     2.40083    
In17     In     0.978880000000     0.328250000000     0.503060000000     2.3861     
In18     In     0.640390000000     0.970630000000     0.558200000000     2.39751    
O1       O      0.945040000000     0.735980000000     0.816650000000    -0.486112   
O2       O      0.017780000000     0.778750000000     0.818840000000    -0.48013    
O3       O      0.942390000000     0.743080000000     0.746540000000    -0.481285   
O4       O      0.928240000000     0.812460000000     0.760290000000    -0.483294   
O5       O      0.027420000000     0.863480000000     0.808440000000    -0.479185   
O6       O      0.925160000000     0.807030000000     0.808290000000    -0.4834     
O7       O      0.015460000000     0.776060000000     0.748040000000    -0.474422   
O8       O      0.033380000000     0.862850000000     0.760550000000    -0.47625    
O9       O      0.760440000000     0.013700000000     0.817620000000    -0.488691   
O10      O      0.730760000000     0.940980000000     0.820000000000    -0.487835   
O11      O      0.769870000000     0.016200000000     0.747550000000    -0.483221   
O12      O      0.853480000000     0.031040000000     0.761270000000    -0.48441    
O13      O      0.805350000000     0.930900000000     0.809050000000    -0.483418   
O14      O      0.851480000000     0.033120000000     0.809330000000    -0.485203   
O15      O      0.729850000000     0.943100000000     0.749170000000    -0.482578   
O16      O      0.799090000000     0.925710000000     0.761120000000    -0.481047   
O17      O      0.222540000000     0.198080000000     0.817570000000    -0.488722   
O18      O      0.179860000000     0.228160000000     0.819930000000    -0.488045   
O19      O      0.215510000000     0.188900000000     0.747460000000    -0.48365    
O20      O      0.146270000000     0.105330000000     0.760900000000    -0.483375   
O21      O      0.095020000000     0.152960000000     0.809380000000    -0.480802   
O22      O      0.151300000000     0.107130000000     0.808920000000    -0.483797   
O23      O      0.182410000000     0.228890000000     0.749120000000    -0.482383   
O24      O      0.095830000000     0.160240000000     0.761530000000    -0.477684   
O25      O      0.730430000000     0.682230000000     0.047860000000    -0.480419   
O26      O      0.690830000000     0.609460000000     0.043050000000    -0.485023   
O27      O      0.586610000000     0.582520000000     0.071360000000    -0.489306   
O28      O      0.673040000000     0.637320000000     0.105410000000    -0.484912   
O29      O      0.674460000000     0.700630000000     0.019450000000    -0.467724   
O30      O      0.656820000000     0.690280000000     0.098930000000    -0.480072   
O31      O      0.602430000000     0.593530000000     0.024430000000    -0.490342   
O32      O      0.619260000000     0.690540000000     0.047760000000    -0.467989   
O33      O      0.896520000000     0.602080000000     0.013910000000    -0.483588   
O34      O      0.934820000000     0.675250000000     0.013370000000    -0.486542   
O35      O      0.975910000000     0.572140000000     0.989160000000    -0.483476   
O36      O      0.945990000000     0.626470000000     0.954190000000    -0.481371   
O37      O      0.006480000000     0.686060000000     0.042640000000    -0.461358   
O38      O      0.012840000000     0.682740000000     0.962730000000    -0.472706   
O39      O      0.962820000000     0.579270000000     0.035370000000    -0.488409   
O40      O      0.050370000000     0.676560000000     0.012710000000    -0.465702   
O41      O      0.676020000000     0.063040000000     0.014860000000    -0.484603   
O42      O      0.710800000000     0.024670000000     0.014340000000    -0.486432   
O43      O      0.566510000000     0.983320000000     0.990270000000    -0.482493   
O44      O      0.650500000000     0.013150000000     0.955280000000    -0.48322    
O45      O      0.649820000000     0.953260000000     0.044020000000    -0.466962   
O46      O      0.640310000000     0.946470000000     0.964030000000    -0.480998   
O47      O      0.586950000000     0.997080000000     0.036410000000    -0.487639   
O48      O      0.596620000000     0.909130000000     0.014070000000    -0.469665   
O49      O      0.889300000000     0.268890000000     0.043180000000    -0.484389   
O50      O      0.922520000000     0.229310000000     0.047780000000    -0.480194   
O51      O      0.966970000000     0.373390000000     0.071120000000    -0.48932    
O52      O      0.004120000000     0.302730000000     0.098770000000    -0.472258   
O53      O      0.996790000000     0.285290000000     0.019290000000    -0.473165   
O54      O      0.935130000000     0.286980000000     0.105330000000    -0.483342   
O55      O      0.961590000000     0.357130000000     0.024250000000    -0.490248   
O56      O      0.041970000000     0.340440000000     0.047610000000    -0.466308   
O57      O      0.357410000000     0.283510000000     0.014660000000    -0.484474   
O58      O      0.284270000000     0.248750000000     0.014350000000    -0.486241   
O59      O      0.387270000000     0.392830000000     0.989860000000    -0.482548   
O60      O      0.276600000000     0.319280000000     0.963690000000    -0.480768   
O61      O      0.273660000000     0.309700000000     0.043610000000    -0.466492   
O62      O      0.332650000000     0.308380000000     0.955040000000    -0.483679   
O63      O      0.380440000000     0.372670000000     0.036070000000    -0.487563   
O64      O      0.283080000000     0.363090000000     0.013700000000    -0.469381   
O65      O      0.349980000000     0.070320000000     0.043650000000    -0.484926   
O66      O      0.277240000000     0.037190000000     0.048480000000    -0.479776   
O67      O      0.376970000000     0.993070000000     0.071870000000    -0.489326   
O68      O      0.269170000000     0.955270000000     0.099390000000    -0.479795   
O69      O      0.258870000000     0.962910000000     0.019940000000    -0.467691   
O70      O      0.321940000000     0.024480000000     0.105960000000    -0.484526   
O71      O      0.365890000000     0.997810000000     0.024950000000    -0.49058    
O72      O      0.268930000000     0.917670000000     0.048150000000    -0.467765   
O73      O      0.729570000000     0.767080000000     0.317230000000    -0.488987   
O74      O      0.771880000000     0.736580000000     0.319470000000    -0.488576   
O75      O      0.736720000000     0.776350000000     0.247080000000    -0.483577   
O76      O      0.805740000000     0.859760000000     0.260720000000    -0.483908   
O77      O      0.857010000000     0.811740000000     0.309060000000    -0.483699   
O78      O      0.801040000000     0.857870000000     0.308750000000    -0.484419   
O79      O      0.769720000000     0.736260000000     0.248700000000    -0.482782   
O80      O      0.856280000000     0.804880000000     0.261190000000    -0.480695   
O81      O      0.007390000000     0.228790000000     0.316960000000    -0.480778   
O82      O      0.934560000000     0.186720000000     0.318920000000    -0.485628   
O83      O      0.009790000000     0.221960000000     0.246750000000    -0.475492   
O84      O      0.023970000000     0.152690000000     0.260420000000    -0.479043   
O85      O      0.924470000000     0.101550000000     0.308590000000    -0.48347    
O86      O      0.026650000000     0.157470000000     0.308450000000    -0.479825   
O87      O      0.936720000000     0.189060000000     0.248270000000    -0.480135   
O88      O      0.918790000000     0.102200000000     0.260680000000    -0.480341   
O89      O      0.191710000000     0.951130000000     0.317380000000    -0.488698   
O90      O      0.221240000000     0.023830000000     0.319780000000    -0.48777    
O91      O      0.182250000000     0.948670000000     0.247310000000    -0.483139   
O92      O      0.098570000000     0.933790000000     0.261010000000    -0.483857   
O93      O      0.152920000000     0.039120000000     0.261000000000    -0.479982   
O94      O      0.100570000000     0.931460000000     0.309060000000    -0.484682   
O95      O      0.222130000000     0.021780000000     0.248960000000    -0.482174   
O96      O      0.146480000000     0.033660000000     0.308920000000    -0.482937   
O97      O      0.595200000000     0.682000000000     0.514820000000    -0.484593   
O98      O      0.668340000000     0.716950000000     0.513890000000    -0.485904   
O99      O      0.564940000000     0.573010000000     0.489810000000    -0.488711   
O100     O      0.619890000000     0.657580000000     0.454920000000    -0.48656    
O101     O      0.679600000000     0.656470000000     0.543060000000    -0.467261   
O102     O      0.675260000000     0.645510000000     0.463220000000    -0.484102   
O103     O      0.572560000000     0.592900000000     0.536100000000    -0.489525   
O104     O      0.669480000000     0.602510000000     0.513460000000    -0.469295   
O105     O      0.062940000000     0.696240000000     0.542950000000    -0.480144   
O106     O      0.029740000000     0.735860000000     0.547510000000    -0.475303   
O107     O      0.984880000000     0.591660000000     0.570960000000    -0.489408   
O108     O      0.948150000000     0.662670000000     0.598460000000    -0.478184   
O109     O      0.955510000000     0.679800000000     0.518910000000    -0.468131   
O110     O      0.017050000000     0.678160000000     0.605070000000    -0.476735   
O111     O      0.990830000000     0.608040000000     0.524090000000    -0.490017   
O112     O      0.910250000000     0.624830000000     0.547310000000    -0.467001   
O113     O      0.222180000000     0.283710000000     0.548400000000    -0.479681   
O114     O      0.261470000000     0.356590000000     0.544170000000    -0.484548   
O115     O      0.366220000000     0.383460000000     0.571880000000    -0.489254   
O116     O      0.279750000000     0.328790000000     0.606140000000    -0.484743   
O117     O      0.278280000000     0.265730000000     0.519970000000    -0.466694   
O118     O      0.295630000000     0.275630000000     0.599480000000    -0.479808   
O119     O      0.349800000000     0.372730000000     0.525020000000    -0.489763   
O120     O      0.333310000000     0.275590000000     0.548370000000    -0.467656   
O121     O      0.276260000000     0.902010000000     0.514530000000    -0.484699   
O122     O      0.241530000000     0.940430000000     0.514120000000    -0.486228   
O123     O      0.385860000000     0.981800000000     0.490080000000    -0.488514   
O124     O      0.301940000000     0.951940000000     0.454990000000    -0.485891   
O125     O      0.302530000000     0.011880000000     0.543720000000    -0.466902   
O126     O      0.311890000000     0.018530000000     0.463760000000    -0.483424   
O127     O      0.365290000000     0.967980000000     0.536200000000    -0.489516   
O128     O      0.355730000000     0.055950000000     0.513740000000    -0.469022   
O129     O      0.055350000000     0.363080000000     0.514820000000    -0.480205   
O130     O      0.017490000000     0.289920000000     0.513530000000    -0.480925   
O131     O      0.988370000000     0.385320000000     0.535640000000    -0.489779   
O132     O      0.939180000000     0.283080000000     0.462620000000    -0.481503   
O133     O      0.901680000000     0.288140000000     0.512830000000    -0.467818   
O134     O      0.006910000000     0.338140000000     0.454660000000    -0.478204   
O135     O      0.976740000000     0.393060000000     0.489250000000    -0.488872   
O136     O      0.945520000000     0.278230000000     0.542550000000    -0.467642   
O137     O      0.602410000000     0.895050000000     0.543920000000    -0.484791   
O138     O      0.675190000000     0.928320000000     0.548530000000    -0.480031   
O139     O      0.575340000000     0.972310000000     0.571980000000    -0.489382   
O140     O      0.630300000000     0.940810000000     0.606150000000    -0.48485    
O141     O      0.693580000000     0.002650000000     0.520230000000    -0.466947   
O142     O      0.683130000000     0.010010000000     0.599640000000    -0.479751   
O143     O      0.586510000000     0.967520000000     0.525080000000    -0.489968   
O144     O      0.683320000000     0.047750000000     0.548450000000    -0.467707   


