data_structure

_audit_creation_method RASPA-1.0
_audit_creation_date 2023-5-22
_audit_author_name 'Poobodin Mano'

_cell_length_a    34.5181
_cell_length_b    27.0615
_cell_length_c    31.8462
_cell_angle_alpha 90.0011
_cell_angle_beta  89.9993
_cell_angle_gamma 90.0001
_cell_volume      29747.9

_symmetry_cell_setting          triclinic
_symmetry_space_group_name_Hall 'P 1'
_symmetry_space_group_name_H-M  'P 1'
_symmetry_Int_Tables_number     1

_symmetry_equiv_pos_as_xyz 'x,y,z'

loop_
_atom_site_label
_atom_site_type_symbol
_atom_site_fract_x
_atom_site_fract_y
_atom_site_fract_z
_atom_site_charge
C1       C      0.353880000000     0.054320000000     0.209440000000     0.349179   
C2       C      0.437800000000     0.071840000000     0.088270000000     0.347179   
C3       C      0.385570000000     0.187220000000     0.160470000000     0.347797   
C4       C      0.476140000000     0.065520000000     0.211040000000     0.351798   
C5       C      0.105780000000     0.997320000000     0.309480000000     0.345068   
C6       C      0.190490000000     0.989680000000     0.432070000000     0.344857   
C7       C      0.132890000000     0.871390000000     0.375990000000     0.34814    
C8       C      0.223600000000     0.985860000000     0.307050000000     0.347803   
C9       C      0.345010000000     0.039790000000     0.694180000000     0.353822   
C10      C      0.257080000000     0.061300000000     0.587080000000     0.355011   
C11      C      0.219780000000     0.064540000000     0.711870000000     0.353547   
C12      C      0.306060000000     0.182440000000     0.668190000000     0.352168   
C13      C      0.089000000000     0.002110000000     0.811560000000     0.349862   
C14      C      0.999790000000     0.004590000000     0.929670000000     0.351852   
C15      C      0.972760000000     0.984840000000     0.799730000000     0.34797    
C16      C      0.058710000000     0.879180000000     0.878220000000     0.35056    
C17      C      0.352200000000     0.503710000000     0.728660000000     0.350529   
C18      C      0.437030000000     0.491840000000     0.607160000000     0.348231   
C19      C      0.473180000000     0.491630000000     0.729260000000     0.35047    
C20      C      0.381600000000     0.372830000000     0.673150000000     0.348528   
C21      C      0.103750000000     0.558420000000     0.826820000000     0.348373   
C22      C      0.184320000000     0.569180000000     0.951350000000     0.348214   
C23      C      0.222010000000     0.571140000000     0.826650000000     0.351521   
C24      C      0.130960000000     0.687940000000     0.888450000000     0.348874   
C25      C      0.082810000000     0.553470000000     0.326360000000     0.348887   
C26      C      0.002040000000     0.563970000000     0.451380000000     0.345968   
C27      C      0.057570000000     0.681920000000     0.388010000000     0.348472   
C28      C      0.465100000000     0.566940000000     0.326090000000     0.351102   
C29      C      0.335370000000     0.501920000000     0.226160000000     0.348976   
C30      C      0.249010000000     0.494470000000     0.106220000000     0.346647   
C31      C      0.304590000000     0.373080000000     0.168420000000     0.347803   
C32      C      0.213470000000     0.489620000000     0.227750000000     0.351584   
C33      C      0.132260000000     0.567520000000     0.270960000000    -0.00497136 
C34      C      0.115460000000     0.535720000000     0.300650000000    -0.0728564  
C35      C      0.130650000000     0.487950000000     0.305830000000    -0.00533094 
C36      C      0.162140000000     0.472270000000     0.281480000000    -0.00382538 
C37      C      0.179360000000     0.504610000000     0.252440000000    -0.0753403  
C38      C      0.164130000000     0.552310000000     0.247430000000    -0.00399995 
C39      C      0.417820000000     0.581180000000     0.267270000000    -0.00461506 
C40      C      0.431630000000     0.551670000000     0.300380000000    -0.0754176  
C41      C      0.413480000000     0.506330000000     0.308750000000    -0.00469583 
C42      C      0.382090000000     0.490750000000     0.284690000000    -0.00514444 
C43      C      0.368440000000     0.519770000000     0.251280000000    -0.0752572  
C44      C      0.386600000000     0.565110000000     0.242610000000    -0.00524887 
C45      C      0.183180000000     0.510140000000     0.011930000000    -0.00537149 
C46      C      0.200020000000     0.550930000000     0.991660000000    -0.0743508  
C47      C      0.233150000000     0.572870000000     0.009270000000    -0.00528375 
C48      C      0.249260000000     0.554250000000     0.046290000000    -0.00627929 
C49      C      0.232540000000     0.513340000000     0.066490000000    -0.0723748  
C50      C      0.199270000000     0.491540000000     0.049020000000    -0.00623567 
C51      C      0.437170000000     0.550830000000     0.546640000000    -0.00590481 
C52      C      0.453400000000     0.509680000000     0.566980000000    -0.0736202  
C53      C      0.986190000000     0.486910000000     0.549350000000    -0.00407929 
C54      C      0.002370000000     0.504900000000     0.512060000000    -0.00849212 
C55      C      0.986100000000     0.546040000000     0.491730000000    -0.0717229  
C56      C      0.453360000000     0.568830000000     0.509430000000    -0.00560885 
C57      C      0.306360000000     0.495070000000     0.788360000000    -0.00503746 
C58      C      0.319310000000     0.522380000000     0.753610000000    -0.0755075  
C59      C      0.300350000000     0.566670000000     0.743150000000    -0.0050077  
C60      C      0.268960000000     0.583310000000     0.767240000000    -0.00461564 
C61      C      0.255750000000     0.555390000000     0.801590000000    -0.0756618  
C62      C      0.274780000000     0.511190000000     0.811870000000    -0.00455977 
C63      C      0.022900000000     0.554720000000     0.747230000000    -0.00407245 
C64      C      0.007240000000     0.507480000000     0.753720000000    -0.0759605  
C65      C      0.024020000000     0.476340000000     0.783980000000    -0.00387873 
C66      C      0.055490000000     0.492730000000     0.808000000000    -0.00566227 
C67      C      0.071100000000     0.540030000000     0.801370000000    -0.0728627  
C68      C      0.054740000000     0.570640000000     0.770510000000    -0.00537394 
C69      C      0.054350000000     0.787500000000     0.885650000000    -0.00457496 
C70      C      0.076900000000     0.830640000000     0.885680000000    -0.0751728  
C71      C      0.117320000000     0.826700000000     0.889850000000    -0.00408865 
C72      C      0.135020000000     0.780250000000     0.891860000000    -0.00532309 
C73      C      0.112500000000     0.737060000000     0.890780000000    -0.0739643  
C74      C      0.071950000000     0.741150000000     0.888690000000    -0.00502638 
C75      C      0.347290000000     0.245260000000     0.704150000000    -0.00423508 
C76      C      0.324160000000     0.231880000000     0.669690000000    -0.0753339  
C77      C      0.320350000000     0.265020000000     0.635970000000    -0.00458807 
C78      C      0.339070000000     0.310930000000     0.636920000000    -0.00578953 
C79      C      0.362590000000     0.323960000000     0.671190000000    -0.0740805  
C80      C      0.366580000000     0.290630000000     0.704720000000    -0.00574361 
C81      C      0.376560000000     0.979970000000     0.743210000000    -0.00504069 
C82      C      0.379510000000     0.020930000000     0.716270000000    -0.0753853  
C83      C      0.414470000000     0.047370000000     0.714580000000    -0.00486385 
C84      C      0.445140000000     0.034860000000     0.741150000000    -0.00382076 
C85      C      0.441710000000     0.995010000000     0.769150000000    -0.0756493  
C86      C      0.407610000000     0.966730000000     0.769080000000    -0.00461634 
C87      C      0.169660000000     0.002860000000     0.731710000000    -0.000181536
C88      C      0.185930000000     0.049950000000     0.737330000000    -0.0765425  
C89      C      0.169890000000     0.081830000000     0.767510000000    -0.0037142  
C90      C      0.138310000000     0.066480000000     0.791950000000    -0.00676901 
C91      C      0.122180000000     0.019250000000     0.786200000000    -0.0699563  
C92      C      0.138090000000     0.987770000000     0.755720000000    -0.00928997 
C93      C      0.135920000000     0.779430000000     0.383870000000    -0.00548647 
C94      C      0.114040000000     0.823120000000     0.383120000000    -0.0737661  
C95      C      0.073520000000     0.820210000000     0.387000000000    -0.00505707 
C96      C      0.055100000000     0.774300000000     0.389690000000    -0.00513323 
C97      C      0.076920000000     0.730550000000     0.389550000000    -0.0739787  
C98      C      0.117550000000     0.733570000000     0.387540000000    -0.00485078 
C99      C      0.190550000000     0.047910000000     0.493180000000    -0.00819069 
C100     C      0.207370000000     0.007900000000     0.471820000000    -0.0697235  
C101     C      0.241200000000     0.986280000000     0.488160000000    -0.0103502  
C102     C      0.257780000000     0.004150000000     0.525230000000    -0.0010301  
C103     C      0.240840000000     0.043980000000     0.546720000000    -0.0776778  
C104     C      0.207100000000     0.065740000000     0.530280000000    -0.0024562  
C105     C      0.354700000000     0.259680000000     0.124450000000    -0.00482507 
C106     C      0.365680000000     0.235350000000     0.161560000000    -0.0735032  
C107     C      0.355940000000     0.256230000000     0.200480000000    -0.00427809 
C108     C      0.335090000000     0.300300000000     0.202390000000    -0.00422591 
C109     C      0.324650000000     0.325180000000     0.165440000000    -0.0741615  
C110     C      0.334950000000     0.304890000000     0.126400000000    -0.00437911 
C111     C      0.002410000000     0.060500000000     0.992450000000    -0.00711023 
C112     C      0.983380000000     0.023450000000     0.969460000000    -0.0771561  
C113     C      0.448550000000     0.003830000000     0.985110000000    -0.00304446 
C114     C      0.433380000000     0.020270000000     0.023300000000    -0.00727672 
C115     C      0.452700000000     0.056710000000     0.046680000000    -0.0723914  
C116     C      0.987210000000     0.076980000000     0.030720000000    -0.00428824 
C117     C      0.303490000000     0.989410000000     0.224920000000    -0.00570444 
C118     C      0.320560000000     0.035440000000     0.233680000000    -0.0747522  
C119     C      0.305570000000     0.064330000000     0.266480000000    -0.00475694 
C120     C      0.274070000000     0.047930000000     0.289900000000    -0.00554208 
C121     C      0.257030000000     0.001880000000     0.281550000000    -0.0723463  
C122     C      0.272090000000     0.972510000000     0.248980000000    -0.00669483 
C123     C      0.023730000000     0.000500000000     0.231160000000    -0.000227244
C124     C      0.009900000000     0.048980000000     0.235680000000    -0.0782778  
C125     C      0.028160000000     0.080880000000     0.264320000000    -0.00225525 
C126     C      0.059320000000     0.064170000000     0.288620000000    -0.00747504 
C127     C      0.073170000000     0.015670000000     0.283930000000    -0.0689943  
C128     C      0.055290000000     0.984170000000     0.254740000000    -0.00966091 
C129     C      0.853880000000     0.054320000000     0.209440000000     0.349194   
C130     C      0.937800000000     0.071840000000     0.088270000000     0.347597   
C131     C      0.885570000000     0.187220000000     0.160470000000     0.347571   
C132     C      0.976140000000     0.065520000000     0.211040000000     0.352858   
C133     C      0.605780000000     0.997320000000     0.309480000000     0.345136   
C134     C      0.690490000000     0.989680000000     0.432070000000     0.344807   
C135     C      0.632890000000     0.871390000000     0.375990000000     0.348161   
C136     C      0.723600000000     0.985860000000     0.307050000000     0.347811   
C137     C      0.845010000000     0.039790000000     0.694180000000     0.35383    
C138     C      0.757080000000     0.061300000000     0.587080000000     0.354982   
C139     C      0.719780000000     0.064540000000     0.711870000000     0.353537   
C140     C      0.806060000000     0.182440000000     0.668190000000     0.352454   
C141     C      0.589000000000     0.002110000000     0.811560000000     0.349835   
C142     C      0.499790000000     0.004580000000     0.929670000000     0.351834   
C143     C      0.472750000000     0.984850000000     0.799740000000     0.34812    
C144     C      0.558710000000     0.879190000000     0.878220000000     0.350602   
C145     C      0.852200000000     0.503710000000     0.728660000000     0.350546   
C146     C      0.937030000000     0.491840000000     0.607150000000     0.348525   
C147     C      0.973180000000     0.491630000000     0.729260000000     0.351379   
C148     C      0.881600000000     0.372830000000     0.673150000000     0.348318   
C149     C      0.603750000000     0.558420000000     0.826820000000     0.348432   
C150     C      0.684320000000     0.569180000000     0.951350000000     0.348218   
C151     C      0.722010000000     0.571140000000     0.826640000000     0.351466   
C152     C      0.630960000000     0.687940000000     0.888450000000     0.348899   
C153     C      0.582810000000     0.553470000000     0.326360000000     0.348911   
C154     C      0.502040000000     0.563970000000     0.451390000000     0.348304   
C155     C      0.557570000000     0.681920000000     0.388010000000     0.348477   
C156     C      0.965100000000     0.566940000000     0.326090000000     0.350967   
C157     C      0.835370000000     0.501920000000     0.226160000000     0.349154   
C158     C      0.749010000000     0.494470000000     0.106220000000     0.346663   
C159     C      0.804590000000     0.373090000000     0.168420000000     0.347997   
C160     C      0.713470000000     0.489620000000     0.227750000000     0.35159    
C161     C      0.632260000000     0.567520000000     0.270960000000    -0.00496438 
C162     C      0.615460000000     0.535720000000     0.300650000000    -0.0727844  
C163     C      0.630650000000     0.487950000000     0.305830000000    -0.00531707 
C164     C      0.662140000000     0.472270000000     0.281480000000    -0.00379318 
C165     C      0.679360000000     0.504610000000     0.252440000000    -0.0753314  
C166     C      0.664130000000     0.552310000000     0.247430000000    -0.00397192 
C167     C      0.917820000000     0.581180000000     0.267270000000    -0.00463234 
C168     C      0.931630000000     0.551670000000     0.300380000000    -0.0752686  
C169     C      0.913480000000     0.506330000000     0.308740000000    -0.00469147 
C170     C      0.882090000000     0.490750000000     0.284690000000    -0.0050746  
C171     C      0.868440000000     0.519770000000     0.251280000000    -0.0753211  
C172     C      0.886600000000     0.565110000000     0.242610000000    -0.00515677 
C173     C      0.683180000000     0.510140000000     0.011930000000    -0.00535604 
C174     C      0.700020000000     0.550930000000     0.991660000000    -0.0743253  
C175     C      0.733150000000     0.572870000000     0.009270000000    -0.00527094 
C176     C      0.749260000000     0.554250000000     0.046290000000    -0.00626509 
C177     C      0.732540000000     0.513340000000     0.066490000000    -0.0723463  
C178     C      0.699270000000     0.491540000000     0.049020000000    -0.00621877 
C179     C      0.937170000000     0.550830000000     0.546640000000    -0.00495    
C180     C      0.953400000000     0.509680000000     0.566980000000    -0.0745211  
C181     C      0.486190000000     0.486910000000     0.549350000000    -0.00599782 
C182     C      0.502370000000     0.504900000000     0.512060000000    -0.00565473 
C183     C      0.486100000000     0.546040000000     0.491730000000    -0.0745391  
C184     C      0.953360000000     0.568830000000     0.509430000000    -0.00683906 
C185     C      0.806360000000     0.495070000000     0.788360000000    -0.00504224 
C186     C      0.819310000000     0.522380000000     0.753610000000    -0.0754729  
C187     C      0.800350000000     0.566670000000     0.743150000000    -0.0050007  
C188     C      0.768960000000     0.583310000000     0.767240000000    -0.00458234 
C189     C      0.755750000000     0.555390000000     0.801590000000    -0.0756931  
C190     C      0.774780000000     0.511190000000     0.811870000000    -0.00449393 
C191     C      0.522900000000     0.554720000000     0.747230000000    -0.00435102 
C192     C      0.507240000000     0.507480000000     0.753720000000    -0.0749735  
C193     C      0.524020000000     0.476340000000     0.783980000000    -0.00416333 
C194     C      0.555490000000     0.492730000000     0.808000000000    -0.00542345 
C195     C      0.571100000000     0.540030000000     0.801370000000    -0.07296    
C196     C      0.554740000000     0.570640000000     0.770510000000    -0.00513869 
C197     C      0.554340000000     0.787500000000     0.885650000000    -0.00467241 
C198     C      0.576900000000     0.830640000000     0.885680000000    -0.074993   
C199     C      0.617320000000     0.826700000000     0.889850000000    -0.00414229 
C200     C      0.635020000000     0.780250000000     0.891860000000    -0.00525764 
C201     C      0.612500000000     0.737060000000     0.890780000000    -0.0739957  
C202     C      0.571960000000     0.741150000000     0.888690000000    -0.00486971 
C203     C      0.847290000000     0.245260000000     0.704150000000    -0.00414046 
C204     C      0.824160000000     0.231880000000     0.669690000000    -0.0754333  
C205     C      0.820350000000     0.265020000000     0.635970000000    -0.00451483 
C206     C      0.839070000000     0.310930000000     0.636920000000    -0.00583365 
C207     C      0.862590000000     0.323960000000     0.671190000000    -0.07394    
C208     C      0.866580000000     0.290630000000     0.704720000000    -0.00579367 
C209     C      0.876560000000     0.979970000000     0.743210000000    -0.00498806 
C210     C      0.879510000000     0.020920000000     0.716270000000    -0.0753625  
C211     C      0.914470000000     0.047370000000     0.714580000000    -0.00477889 
C212     C      0.945150000000     0.034860000000     0.741140000000    -0.0038933  
C213     C      0.941710000000     0.995000000000     0.769140000000    -0.075417   
C214     C      0.907610000000     0.966730000000     0.769080000000    -0.00463845 
C215     C      0.669660000000     0.002860000000     0.731700000000    -0.000237289
C216     C      0.685930000000     0.049950000000     0.737330000000    -0.0764744  
C217     C      0.669890000000     0.081830000000     0.767520000000    -0.00373448 
C218     C      0.638310000000     0.066480000000     0.791950000000    -0.00671288 
C219     C      0.622170000000     0.019250000000     0.786200000000    -0.069933   
C220     C      0.638080000000     0.987770000000     0.755720000000    -0.00921718 
C221     C      0.635920000000     0.779430000000     0.383870000000    -0.0054057  
C222     C      0.614040000000     0.823120000000     0.383120000000    -0.073791   
C223     C      0.573530000000     0.820210000000     0.387000000000    -0.0049398  
C224     C      0.555100000000     0.774300000000     0.389700000000    -0.00514974 
C225     C      0.576920000000     0.730550000000     0.389550000000    -0.0738777  
C226     C      0.617550000000     0.733570000000     0.387540000000    -0.00488192 
C227     C      0.690550000000     0.047910000000     0.493180000000    -0.00823084 
C228     C      0.707370000000     0.007900000000     0.471830000000    -0.0696255  
C229     C      0.741200000000     0.986280000000     0.488160000000    -0.0103455  
C230     C      0.757790000000     0.004150000000     0.525230000000    -0.00105061 
C231     C      0.740840000000     0.043980000000     0.546720000000    -0.0776417  
C232     C      0.707100000000     0.065740000000     0.530280000000    -0.00242008 
C233     C      0.854700000000     0.259680000000     0.124450000000    -0.00482231 
C234     C      0.865680000000     0.235350000000     0.161550000000    -0.0733649  
C235     C      0.855940000000     0.256230000000     0.200480000000    -0.00432684 
C236     C      0.835090000000     0.300300000000     0.202390000000    -0.00416422 
C237     C      0.824640000000     0.325180000000     0.165440000000    -0.0741738  
C238     C      0.834950000000     0.304890000000     0.126390000000    -0.00434809 
C239     C      0.502410000000     0.060500000000     0.992450000000    -0.00445825 
C240     C      0.483380000000     0.023450000000     0.969460000000    -0.0787364  
C241     C      0.948550000000     0.003830000000     0.985100000000    -0.00377999 
C242     C      0.933370000000     0.020280000000     0.023290000000    -0.00652185 
C243     C      0.952700000000     0.056710000000     0.046670000000    -0.0733326  
C244     C      0.487210000000     0.076980000000     0.030730000000    -0.00694914 
C245     C      0.803490000000     0.989410000000     0.224920000000    -0.00570217 
C246     C      0.820560000000     0.035440000000     0.233680000000    -0.0747196  
C247     C      0.805570000000     0.064330000000     0.266480000000    -0.00472217 
C248     C      0.774070000000     0.047930000000     0.289900000000    -0.00553142 
C249     C      0.757030000000     0.001880000000     0.281550000000    -0.0723402  
C250     C      0.772090000000     0.972510000000     0.248990000000    -0.00664868 
C251     C      0.523730000000     0.000500000000     0.231160000000    -0.000570652
C252     C      0.509900000000     0.048980000000     0.235680000000    -0.0771941  
C253     C      0.528160000000     0.080880000000     0.264330000000    -0.00261559 
C254     C      0.559320000000     0.064170000000     0.288620000000    -0.00719922 
C255     C      0.573170000000     0.015670000000     0.283930000000    -0.0691164  
C256     C      0.555300000000     0.984170000000     0.254740000000    -0.0093943  
H1       H      0.121240000000     0.604630000000     0.266440000000     0.0502722  
H2       H      0.118130000000     0.462760000000     0.328510000000     0.0503617  
H3       H      0.173480000000     0.435310000000     0.285940000000     0.0501536  
H4       H      0.176760000000     0.577890000000     0.225130000000     0.048973   
H5       H      0.431420000000     0.616260000000     0.260130000000     0.0503935  
H6       H      0.423410000000     0.482860000000     0.334120000000     0.0502382  
H7       H      0.368760000000     0.455560000000     0.292070000000     0.0505224  
H8       H      0.376550000000     0.588200000000     0.217060000000     0.0503969  
H9       H      0.157730000000     0.492340000000     0.999000000000     0.0519458  
H10      H      0.246880000000     0.604240000000     0.994270000000     0.0506722  
H11      H      0.274790000000     0.571980000000     0.059110000000     0.0525528  
H12      H      0.185630000000     0.460090000000     0.063980000000     0.0509883  
H13      H      0.412010000000     0.569320000000     0.559550000000     0.0523641  
H14      H      0.999450000000     0.455260000000     0.564410000000     0.0502421  
H15      H      0.027500000000     0.486430000000     0.499070000000     0.0523321  
H16      H      0.440040000000     0.600470000000     0.494410000000     0.0506611  
H17      H      0.320320000000     0.460730000000     0.797140000000     0.0504896  
H18      H      0.309840000000     0.588440000000     0.716530000000     0.0505941  
H19      H      0.254700000000     0.617500000000     0.758640000000     0.0502539  
H20      H      0.265340000000     0.488990000000     0.838270000000     0.0501942  
H21      H      0.010620000000     0.579400000000     0.723980000000     0.0490207  
H22      H      0.012380000000     0.439760000000     0.789610000000     0.0501209  
H23      H      0.067660000000     0.468420000000     0.831580000000     0.0505897  
H24      H      0.066090000000     0.607360000000     0.764840000000     0.0503988  
H25      H      0.023130000000     0.789560000000     0.882540000000     0.0494743  
H26      H      0.135380000000     0.859440000000     0.889760000000     0.049044   
H27      H      0.166320000000     0.778090000000     0.893480000000     0.0498751  
H28      H      0.053890000000     0.708430000000     0.887610000000     0.0497075  
H29      H      0.351050000000     0.220280000000     0.730410000000     0.0493078  
H30      H      0.302810000000     0.255530000000     0.608930000000     0.0496209  
H31      H      0.335380000000     0.336030000000     0.610730000000     0.0491547  
H32      H      0.384240000000     0.299850000000     0.731720000000     0.0515087  
H33      H      0.349860000000     0.959040000000     0.745130000000     0.0499795  
H34      H      0.417420000000     0.079320000000     0.694330000000     0.0485103  
H35      H      0.971290000000     0.057000000000     0.740370000000     0.0490158  
H36      H      0.404280000000     0.935780000000     0.790350000000     0.0502845  
H37      H      0.181300000000     0.977460000000     0.708630000000     0.0501026  
H38      H      0.181930000000     0.118320000000     0.772510000000     0.049844   
H39      H      0.126530000000     0.091530000000     0.815200000000     0.0519696  
H40      H      0.126330000000     0.951150000000     0.750560000000     0.0523647  
H41      H      0.167180000000     0.780660000000     0.381040000000     0.04991    
H42      H      0.055920000000     0.853340000000     0.386380000000     0.0497217  
H43      H      0.023760000000     0.773000000000     0.391190000000     0.0498397  
H44      H      0.135090000000     0.700370000000     0.387110000000     0.0496129  
H45      H      0.164580000000     0.065470000000     0.481260000000     0.0528139  
H46      H      0.254940000000     0.955530000000     0.472280000000     0.0516534  
H47      H      0.283680000000     0.986490000000     0.537230000000     0.04868    
H48      H      0.193290000000     0.096390000000     0.546240000000     0.0506121  
H49      H      0.361810000000     0.244070000000     0.094090000000     0.0466327  
H50      H      0.363710000000     0.237880000000     0.229530000000     0.0499093  
H51      H      0.327820000000     0.315480000000     0.232880000000     0.0492243  
H52      H      0.327270000000     0.323620000000     0.097510000000     0.0466052  
H53      H      0.029260000000     0.076380000000     0.981130000000     0.0511051  
H54      H      0.433140000000     0.975320000000     0.968040000000     0.0493075  
H55      H      0.406750000000     0.003930000000     0.034760000000     0.0528626  
H56      H      0.002790000000     0.105090000000     0.048080000000     0.0497357  
H57      H      0.314580000000     0.966410000000     0.199810000000     0.0497984  
H58      H      0.317980000000     0.100040000000     0.273930000000     0.0506966  
H59      H      0.263230000000     0.071360000000     0.314860000000     0.051282   
H60      H      0.259390000000     0.936880000000     0.241880000000     0.0501857  
H61      H      0.010250000000     0.975190000000     0.209210000000     0.0470774  
H62      H      0.017940000000     0.118410000000     0.268470000000     0.0501828  
H63      H      0.072690000000     0.089200000000     0.310860000000     0.0514836  
H64      H      0.065300000000     0.946540000000     0.250570000000     0.0509786  
H65      H      0.621240000000     0.604630000000     0.266440000000     0.0503228  
H66      H      0.618130000000     0.462760000000     0.328510000000     0.0504365  
H67      H      0.673480000000     0.435310000000     0.285940000000     0.0501861  
H68      H      0.676760000000     0.577890000000     0.225130000000     0.0489954  
H69      H      0.931420000000     0.616260000000     0.260130000000     0.0505178  
H70      H      0.923410000000     0.482860000000     0.334120000000     0.0503205  
H71      H      0.868760000000     0.455560000000     0.292070000000     0.0505444  
H72      H      0.876550000000     0.588200000000     0.217060000000     0.0504353  
H73      H      0.657730000000     0.492340000000     0.999000000000     0.0519962  
H74      H      0.746880000000     0.604240000000     0.994270000000     0.0507049  
H75      H      0.774790000000     0.571980000000     0.059110000000     0.0525927  
H76      H      0.685630000000     0.460090000000     0.063980000000     0.0510316  
H77      H      0.912010000000     0.569320000000     0.559550000000     0.0521876  
H78      H      0.499450000000     0.455260000000     0.564410000000     0.0504962  
H79      H      0.527500000000     0.486430000000     0.499070000000     0.0518156  
H80      H      0.940040000000     0.600470000000     0.494400000000     0.0510796  
H81      H      0.820320000000     0.460730000000     0.797140000000     0.0505315  
H82      H      0.809840000000     0.588440000000     0.716530000000     0.0506341  
H83      H      0.754700000000     0.617500000000     0.758640000000     0.0502728  
H84      H      0.765340000000     0.488990000000     0.838280000000     0.0502043  
H85      H      0.510610000000     0.579400000000     0.723980000000     0.0493295  
H86      H      0.512380000000     0.439760000000     0.789610000000     0.0504291  
H87      H      0.567660000000     0.468420000000     0.831580000000     0.0506122  
H88      H      0.566090000000     0.607360000000     0.764840000000     0.0504142  
H89      H      0.523130000000     0.789560000000     0.882540000000     0.0496605  
H90      H      0.635380000000     0.859440000000     0.889760000000     0.0490812  
H91      H      0.666320000000     0.778090000000     0.893480000000     0.0498844  
H92      H      0.553890000000     0.708430000000     0.887610000000     0.0497621  
H93      H      0.851050000000     0.220280000000     0.730410000000     0.0493231  
H94      H      0.802820000000     0.255540000000     0.608930000000     0.0496335  
H95      H      0.835380000000     0.336030000000     0.610730000000     0.0492022  
H96      H      0.884240000000     0.299850000000     0.731720000000     0.051588   
H97      H      0.849860000000     0.959050000000     0.745140000000     0.0500063  
H98      H      0.917420000000     0.079320000000     0.694330000000     0.0485703  
H99      H      0.471280000000     0.057010000000     0.740380000000     0.048849   
H100     H      0.904280000000     0.935780000000     0.790360000000     0.0503616  
H101     H      0.681300000000     0.977470000000     0.708630000000     0.050159   
H102     H      0.681930000000     0.118320000000     0.772510000000     0.0498902  
H103     H      0.626530000000     0.091530000000     0.815200000000     0.0520285  
H104     H      0.626330000000     0.951150000000     0.750550000000     0.0524066  
H105     H      0.667190000000     0.780660000000     0.381040000000     0.0499092  
H106     H      0.555920000000     0.853340000000     0.386380000000     0.0497877  
H107     H      0.523760000000     0.773000000000     0.391200000000     0.0499982  
H108     H      0.635090000000     0.700370000000     0.387110000000     0.0496448  
H109     H      0.664590000000     0.065470000000     0.481260000000     0.0528822  
H110     H      0.754940000000     0.955530000000     0.472280000000     0.0516876  
H111     H      0.783680000000     0.986490000000     0.537230000000     0.0487304  
H112     H      0.693290000000     0.096390000000     0.546240000000     0.0506503  
H113     H      0.861810000000     0.244070000000     0.094090000000     0.0466942  
H114     H      0.863720000000     0.237880000000     0.229530000000     0.0499775  
H115     H      0.827820000000     0.315480000000     0.232880000000     0.0492457  
H116     H      0.827270000000     0.323620000000     0.097500000000     0.0466446  
H117     H      0.529260000000     0.076380000000     0.981130000000     0.0506134  
H118     H      0.933130000000     0.975320000000     0.968040000000     0.0495522  
H119     H      0.906750000000     0.003940000000     0.034760000000     0.052739   
H120     H      0.502790000000     0.105090000000     0.048080000000     0.0509089  
H121     H      0.814580000000     0.966410000000     0.199810000000     0.0498443  
H122     H      0.817980000000     0.100050000000     0.273930000000     0.0507195  
H123     H      0.763230000000     0.071360000000     0.314860000000     0.0513064  
H124     H      0.759390000000     0.936880000000     0.241880000000     0.0502024  
H125     H      0.510260000000     0.975190000000     0.209210000000     0.0473974  
H126     H      0.517950000000     0.118410000000     0.268470000000     0.0505053  
H127     H      0.572690000000     0.089200000000     0.310860000000     0.0514929  
H128     H      0.565300000000     0.946540000000     0.250570000000     0.0509866  
In1      In     0.413660000000     0.094440000000     0.166390000000     2.41272    
In2      In     0.163550000000     0.960140000000     0.356630000000     2.42383    
In3      In     0.281940000000     0.087530000000     0.664310000000     2.40593    
In4      In     0.029010000000     0.968130000000     0.856960000000     2.40598    
In5      In     0.410920000000     0.464560000000     0.683570000000     2.41589    
In6      In     0.160690000000     0.597300000000     0.874220000000     2.4226     
In7      In     0.026260000000     0.592040000000     0.374340000000     2.42021    
In8      In     0.275720000000     0.464470000000     0.181390000000     2.41902    
In9      In     0.913660000000     0.094440000000     0.166390000000     2.41268    
In10     In     0.663550000000     0.960140000000     0.356630000000     2.42386    
In11     In     0.781940000000     0.087530000000     0.664310000000     2.40618    
In12     In     0.529010000000     0.968130000000     0.856960000000     2.40743    
In13     In     0.910920000000     0.464560000000     0.683570000000     2.41612    
In14     In     0.660690000000     0.597300000000     0.874220000000     2.42275    
In15     In     0.526260000000     0.592040000000     0.374340000000     2.42191    
In16     In     0.775720000000     0.464470000000     0.181380000000     2.41928    
O1       O      0.452940000000     0.035470000000     0.194220000000    -0.496537   
O2       O      0.468020000000     0.110480000000     0.205290000000    -0.474569   
O3       O      0.407950000000     0.052740000000     0.104590000000    -0.479854   
O4       O      0.364580000000     0.037060000000     0.174460000000    -0.467722   
O5       O      0.407940000000     0.173490000000     0.189520000000    -0.476386   
O6       O      0.373430000000     0.090560000000     0.222170000000    -0.49841    
O7       O      0.454910000000     0.103240000000     0.111040000000    -0.491224   
O8       O      0.378510000000     0.154780000000     0.133060000000    -0.485952   
O9       O      0.205560000000     0.015800000000     0.330180000000    -0.500915   
O10      O      0.211250000000     0.941890000000     0.308380000000    -0.471933   
O11      O      0.161230000000     0.009290000000     0.414960000000    -0.475237   
O12      O      0.116470000000     0.017610000000     0.343320000000    -0.471143   
O13      O      0.165990000000     0.875670000000     0.359310000000    -0.478815   
O14      O      0.124420000000     0.958960000000     0.299550000000    -0.495204   
O15      O      0.205250000000     0.954390000000     0.411700000000    -0.494493   
O16      O      0.115950000000     0.911690000000     0.383650000000    -0.495327   
O17      O      0.294930000000     0.162660000000     0.634390000000    -0.482714   
O18      O      0.303300000000     0.155150000000     0.700170000000    -0.485326   
O19      O      0.286720000000     0.042260000000     0.603820000000    -0.486194   
O20      O      0.346960000000     0.070630000000     0.664560000000    -0.484431   
O21      O      0.233630000000     0.107770000000     0.711180000000    -0.476096   
O22      O      0.311230000000     0.031340000000     0.707200000000    -0.482682   
O23      O      0.241020000000     0.094600000000     0.608630000000    -0.488728   
O24      O      0.237270000000     0.033910000000     0.688930000000    -0.489724   
O25      O      0.075070000000     0.919350000000     0.887580000000    -0.48981    
O26      O      0.026920000000     0.883810000000     0.859060000000    -0.476687   
O27      O      0.030880000000     0.020510000000     0.913820000000    -0.479295   
O28      O      0.075690000000     0.025850000000     0.842630000000    -0.468467   
O29      O      0.976890000000     0.943580000000     0.817620000000    -0.471099   
O30      O      0.071940000000     0.961860000000     0.803750000000    -0.494432   
O31      O      0.983830000000     0.970560000000     0.909020000000    -0.499328   
O32      O      0.996590000000     0.017540000000     0.810990000000    -0.489981   
O33      O      0.370960000000     0.409000000000     0.650940000000    -0.490469   
O34      O      0.408070000000     0.382520000000     0.699200000000    -0.478684   
O35      O      0.408300000000     0.512210000000     0.624620000000    -0.478979   
O36      O      0.360710000000     0.519550000000     0.692520000000    -0.471377   
O37      O      0.463680000000     0.446910000000     0.724640000000    -0.472297   
O38      O      0.373400000000     0.469130000000     0.741690000000    -0.498866   
O39      O      0.451760000000     0.456550000000     0.627620000000    -0.49208    
O40      O      0.451330000000     0.522200000000     0.711090000000    -0.496558   
O41      O      0.112470000000     0.648650000000     0.895670000000    -0.49493    
O42      O      0.165180000000     0.681670000000     0.875370000000    -0.477697   
O43      O      0.156000000000     0.549060000000     0.932920000000    -0.477233   
O44      O      0.113070000000     0.540090000000     0.861900000000    -0.471501   
O45      O      0.208380000000     0.614440000000     0.825960000000    -0.474005   
O46      O      0.123450000000     0.595440000000     0.815750000000    -0.495444   
O47      O      0.199680000000     0.604440000000     0.931480000000    -0.495265   
O48      O      0.204680000000     0.541770000000     0.850900000000    -0.50076    
O49      O      0.982850000000     0.536780000000     0.349280000000    -0.499903   
O50      O      0.978120000000     0.610550000000     0.326980000000    -0.472555   
O51      O      0.030140000000     0.543360000000     0.432960000000    -0.477218   
O52      O      0.073630000000     0.534640000000     0.361310000000    -0.470673   
O53      O      0.023200000000     0.676450000000     0.375100000000    -0.477937   
O54      O      0.063110000000     0.590650000000     0.315740000000    -0.496283   
O55      O      0.987210000000     0.599640000000     0.431580000000    -0.494619   
O56      O      0.075350000000     0.642210000000     0.395660000000    -0.493579   
O57      O      0.236150000000     0.520890000000     0.211760000000    -0.498723   
O58      O      0.222110000000     0.445090000000     0.220580000000    -0.473436   
O59      O      0.278460000000     0.513560000000     0.123410000000    -0.478631   
O60      O      0.326070000000     0.519410000000     0.190790000000    -0.470474   
O61      O      0.282550000000     0.383500000000     0.198730000000    -0.47944    
O62      O      0.314560000000     0.466610000000     0.238460000000    -0.498602   
O63      O      0.233840000000     0.459210000000     0.126390000000    -0.491886   
O64      O      0.310980000000     0.408260000000     0.143360000000    -0.48759    
O65      O      0.952940000000     0.035480000000     0.194210000000    -0.496712   
O66      O      0.968020000000     0.110480000000     0.205290000000    -0.47456    
O67      O      0.907950000000     0.052740000000     0.104580000000    -0.479842   
O68      O      0.864570000000     0.037060000000     0.174460000000    -0.467627   
O69      O      0.907940000000     0.173490000000     0.189520000000    -0.476234   
O70      O      0.873430000000     0.090560000000     0.222170000000    -0.498377   
O71      O      0.954910000000     0.103240000000     0.111040000000    -0.491137   
O72      O      0.878510000000     0.154780000000     0.133050000000    -0.48576    
O73      O      0.705560000000     0.015800000000     0.330180000000    -0.500903   
O74      O      0.711250000000     0.941890000000     0.308380000000    -0.471916   
O75      O      0.661230000000     0.009290000000     0.414960000000    -0.475183   
O76      O      0.616470000000     0.017610000000     0.343320000000    -0.471112   
O77      O      0.665990000000     0.875670000000     0.359310000000    -0.478801   
O78      O      0.624420000000     0.958960000000     0.299550000000    -0.495195   
O79      O      0.705250000000     0.954390000000     0.411700000000    -0.49446    
O80      O      0.615950000000     0.911690000000     0.383650000000    -0.495279   
O81      O      0.794930000000     0.162660000000     0.634400000000    -0.482885   
O82      O      0.803300000000     0.155150000000     0.700170000000    -0.485396   
O83      O      0.786720000000     0.042260000000     0.603830000000    -0.486232   
O84      O      0.846960000000     0.070630000000     0.664560000000    -0.484399   
O85      O      0.733630000000     0.107770000000     0.711180000000    -0.476087   
O86      O      0.811230000000     0.031340000000     0.707200000000    -0.482685   
O87      O      0.741020000000     0.094600000000     0.608630000000    -0.488697   
O88      O      0.737270000000     0.033910000000     0.688930000000    -0.489718   
O89      O      0.575070000000     0.919350000000     0.887580000000    -0.489964   
O90      O      0.526920000000     0.883810000000     0.859060000000    -0.476583   
O91      O      0.530870000000     0.020510000000     0.913820000000    -0.479023   
O92      O      0.575690000000     0.025850000000     0.842630000000    -0.468476   
O93      O      0.476890000000     0.943580000000     0.817620000000    -0.471594   
O94      O      0.571940000000     0.961860000000     0.803740000000    -0.494307   
O95      O      0.483830000000     0.970560000000     0.909030000000    -0.4998     
O96      O      0.496590000000     0.017540000000     0.810990000000    -0.490555   
O97      O      0.870960000000     0.409000000000     0.650940000000    -0.490413   
O98      O      0.908080000000     0.382520000000     0.699200000000    -0.478503   
O99      O      0.908300000000     0.512210000000     0.624620000000    -0.478973   
O100     O      0.860720000000     0.519550000000     0.692520000000    -0.471422   
O101     O      0.963680000000     0.446910000000     0.724640000000    -0.472299   
O102     O      0.873400000000     0.469130000000     0.741690000000    -0.498827   
O103     O      0.951760000000     0.456550000000     0.627620000000    -0.492019   
O104     O      0.951330000000     0.522200000000     0.711090000000    -0.496568   
O105     O      0.612470000000     0.648650000000     0.895670000000    -0.494894   
O106     O      0.665180000000     0.681670000000     0.875370000000    -0.477684   
O107     O      0.656000000000     0.549060000000     0.932920000000    -0.477206   
O108     O      0.613070000000     0.540090000000     0.861900000000    -0.471479   
O109     O      0.708370000000     0.614440000000     0.825960000000    -0.474031   
O110     O      0.623450000000     0.595440000000     0.815750000000    -0.495432   
O111     O      0.699680000000     0.604440000000     0.931480000000    -0.495253   
O112     O      0.704680000000     0.541770000000     0.850900000000    -0.500684   
O113     O      0.482850000000     0.536780000000     0.349280000000    -0.500476   
O114     O      0.478120000000     0.610550000000     0.326980000000    -0.473112   
O115     O      0.530140000000     0.543360000000     0.432960000000    -0.477737   
O116     O      0.573640000000     0.534640000000     0.361310000000    -0.470633   
O117     O      0.523200000000     0.676450000000     0.375100000000    -0.477802   
O118     O      0.563110000000     0.590650000000     0.315740000000    -0.496301   
O119     O      0.487210000000     0.599640000000     0.431580000000    -0.495961   
O120     O      0.575350000000     0.642210000000     0.395660000000    -0.493683   
O121     O      0.736150000000     0.520890000000     0.211760000000    -0.498682   
O122     O      0.722110000000     0.445090000000     0.220580000000    -0.473365   
O123     O      0.778460000000     0.513560000000     0.123410000000    -0.478714   
O124     O      0.826070000000     0.519410000000     0.190790000000    -0.470477   
O125     O      0.782550000000     0.383500000000     0.198730000000    -0.479452   
O126     O      0.814560000000     0.466610000000     0.238450000000    -0.498666   
O127     O      0.733840000000     0.459210000000     0.126390000000    -0.491968   
O128     O      0.810970000000     0.408260000000     0.143360000000    -0.487806   


