data_structure

_audit_creation_method RASPA-1.0
_audit_creation_date 2023-6-5
_audit_author_name 'Poobodin Mano'

_cell_length_a    32.6626
_cell_length_b    32.6612
_cell_length_c    33.8884
_cell_angle_alpha 89.5671
_cell_angle_beta  90.433
_cell_angle_gamma 89.9991
_cell_volume      36150.1

_symmetry_cell_setting          triclinic
_symmetry_space_group_name_Hall 'P 1'
_symmetry_space_group_name_H-M  'P 1'
_symmetry_Int_Tables_number     1

_symmetry_equiv_pos_as_xyz 'x,y,z'

loop_
_atom_site_label
_atom_site_type_symbol
_atom_site_fract_x
_atom_site_fract_y
_atom_site_fract_z
_atom_site_charge
C1       C      0.319690000000     0.406470000000     0.007020000000     0.347088   
C2       C      0.287120000000     0.285680000000     0.446330000000     0.349279   
C3       C      0.407890000000     0.318380000000     0.506310000000     0.349467   
C4       C      0.287190000000     0.285760000000     0.067230000000     0.349349   
C5       C      0.319510000000     0.583300000000     0.507310000000     0.349949   
C6       C      0.286930000000     0.703960000000     0.067230000000     0.349507   
C7       C      0.407600000000     0.671520000000     0.007120000000     0.347313   
C8       C      0.286750000000     0.704120000000     0.446310000000     0.348926   
C9       C      0.584710000000     0.318560000000     0.005670000000     0.347284   
C10      C      0.705370000000     0.286120000000     0.445560000000     0.349866   
C11      C      0.672790000000     0.406780000000     0.505480000000     0.349868   
C12      C      0.705550000000     0.285960000000     0.066480000000     0.348763   
C13      C      0.672620000000     0.583610000000     0.005770000000     0.347431   
C14      C      0.705110000000     0.704320000000     0.445560000000     0.34926    
C15      C      0.584410000000     0.671700000000     0.506470000000     0.349774   
C16      C      0.705180000000     0.704400000000     0.066460000000     0.349122   
C17      C      0.819690000000     0.083590000000     0.257600000000     0.34961    
C18      C      0.787310000000     0.204190000000     0.317920000000     0.349783   
C19      C      0.907900000000     0.171690000000     0.257800000000     0.349774   
C20      C      0.787010000000     0.204510000000     0.197000000000     0.349033   
C21      C      0.907590000000     0.818560000000     0.255600000000     0.349599   
C22      C      0.786800000000     0.786000000000     0.316470000000     0.34943    
C23      C      0.819510000000     0.906780000000     0.256640000000     0.349705   
C24      C      0.786870000000     0.786090000000     0.195560000000     0.349411   
C25      C      0.084400000000     0.818390000000     0.255000000000     0.349494   
C26      C      0.204990000000     0.785890000000     0.194870000000     0.349856   
C27      C      0.172610000000     0.906490000000     0.255180000000     0.349596   
C28      C      0.205290000000     0.785570000000     0.315790000000     0.348939   
C29      C      0.084710000000     0.171520000000     0.257190000000     0.349515   
C30      C      0.205430000000     0.203990000000     0.317230000000     0.349496   
C31      C      0.172790000000     0.083300000000     0.256140000000     0.349669   
C32      C      0.205500000000     0.204080000000     0.196320000000     0.349162   
C33      C      0.175360000000     0.973010000000     0.291220000000    -0.00551488 
C34      C      0.174240000000     0.951690000000     0.255370000000    -0.0755728  
C35      C      0.173750000000     0.973980000000     0.219760000000    -0.00559715 
C36      C      0.173790000000     0.016780000000     0.219990000000    -0.00563184 
C37      C      0.174340000000     0.038100000000     0.255850000000    -0.0755612  
C38      C      0.175410000000     0.015800000000     0.291460000000    -0.00559442 
C39      C      0.017800000000     0.815640000000     0.290890000000    -0.00555273 
C40      C      0.039190000000     0.816840000000     0.255090000000    -0.0754724  
C41      C      0.016980000000     0.817510000000     0.219430000000    -0.00566691 
C42      C      0.974180000000     0.817560000000     0.219580000000    -0.00562806 
C43      C      0.952790000000     0.816930000000     0.255400000000    -0.0755172  
C44      C      0.975010000000     0.815680000000     0.291050000000    -0.00560178 
C45      C      0.816970000000     0.017070000000     0.221560000000    -0.00561938 
C46      C      0.818060000000     0.038390000000     0.257410000000    -0.0755238  
C47      C      0.818520000000     0.016100000000     0.293030000000    -0.00561963 
C48      C      0.818490000000     0.973300000000     0.292790000000    -0.00554971 
C49      C      0.817970000000     0.951980000000     0.256930000000    -0.0756214  
C50      C      0.816920000000     0.974280000000     0.221330000000    -0.00555419 
C51      C      0.975320000000     0.172540000000     0.293360000000    -0.00556565 
C52      C      0.953110000000     0.173240000000     0.257700000000    -0.0755829  
C53      C      0.974500000000     0.174470000000     0.221900000000    -0.00555476 
C54      C      0.017290000000     0.174430000000     0.221750000000    -0.00565554 
C55      C      0.039510000000     0.173150000000     0.257400000000    -0.0754865  
C56      C      0.018120000000     0.172490000000     0.293210000000    -0.00561747 
C57      C      0.762610000000     0.709390000000     0.397390000000    -0.00546705 
C58      C      0.725980000000     0.725190000000     0.412520000000    -0.0751266  
C59      C      0.709500000000     0.761140000000     0.395830000000    -0.00548008 
C60      C      0.729270000000     0.780910000000     0.364600000000    -0.00547217 
C61      C      0.765900000000     0.765100000000     0.349470000000    -0.0751933  
C62      C      0.782380000000     0.729150000000     0.366160000000    -0.00546442 
C63      C      0.762020000000     0.708820000000     0.116160000000    -0.00553177 
C64      C      0.726080000000     0.725300000000     0.099470000000    -0.0752355  
C65      C      0.710280000000     0.761930000000     0.114600000000    -0.00556579 
C66      C      0.730050000000     0.781700000000     0.145830000000    -0.00550818 
C67      C      0.765990000000     0.765220000000     0.162520000000    -0.0752275  
C68      C      0.781790000000     0.728590000000     0.147390000000    -0.00553298 
C69      C      0.710210000000     0.228860000000     0.397170000000    -0.00539373 
C70      C      0.726310000000     0.265190000000     0.412900000000    -0.0755064  
C71      C      0.762650000000     0.281280000000     0.397190000000    -0.00543367 
C72      C      0.782500000000     0.261430000000     0.366340000000    -0.00541841 
C73      C      0.766400000000     0.225110000000     0.350610000000    -0.0754602  
C74      C      0.730060000000     0.209010000000     0.366320000000    -0.00547384 
C75      C      0.762640000000     0.281320000000     0.115960000000    -0.00552808 
C76      C      0.726390000000     0.265130000000     0.099850000000    -0.075072   
C77      C      0.710220000000     0.228870000000     0.115940000000    -0.00554612 
C78      C      0.729910000000     0.209180000000     0.147550000000    -0.00551027 
C79      C      0.766150000000     0.225370000000     0.163660000000    -0.0750353  
C80      C      0.782330000000     0.261630000000     0.147560000000    -0.00555174 
C81      C      0.673800000000     0.474140000000     0.469800000000    -0.00563292 
C82      C      0.674330000000     0.451990000000     0.505500000000    -0.0755409  
C83      C      0.675390000000     0.473460000000     0.041270000000    -0.00552522 
C84      C      0.675350000000     0.516250000000     0.041340000000    -0.00552824 
C85      C      0.674240000000     0.538400000000     0.005650000000    -0.0771352  
C86      C      0.673750000000     0.516940000000     0.469880000000    -0.00549775 
C87      C      0.262400000000     0.780890000000     0.365230000000    -0.00546624 
C88      C      0.226150000000     0.764710000000     0.349130000000    -0.0749117  
C89      C      0.209960000000     0.728460000000     0.365240000000    -0.00549613 
C90      C      0.229650000000     0.708770000000     0.396850000000    -0.00545211 
C91      C      0.265910000000     0.724950000000     0.412950000000    -0.0749681  
C92      C      0.282100000000     0.761200000000     0.396830000000    -0.00550441 
C93      C      0.282080000000     0.761230000000     0.115600000000    -0.00551055 
C94      C      0.265990000000     0.724890000000     0.099890000000    -0.0755591  
C95      C      0.229660000000     0.708780000000     0.115620000000    -0.00554799 
C96      C      0.209810000000     0.728630000000     0.146470000000    -0.00544138 
C97      C      0.225900000000     0.764970000000     0.162190000000    -0.0756055  
C98      C      0.262230000000     0.781080000000     0.146450000000    -0.00548894 
C99      C      0.474190000000     0.674100000000     0.471190000000    -0.00551428 
C100     C      0.452800000000     0.673150000000     0.007000000000    -0.0771389  
C101     C      0.475020000000     0.672830000000     0.042660000000    -0.00555035 
C102     C      0.517820000000     0.672870000000     0.042500000000    -0.00559413 
C103     C      0.539200000000     0.673250000000     0.506670000000    -0.0755059  
C104     C      0.516980000000     0.674150000000     0.471030000000    -0.00558034 
C105     C      0.210500000000     0.261480000000     0.365410000000    -0.0054336  
C106     C      0.226310000000     0.224860000000     0.350260000000    -0.0752192  
C107     C      0.262270000000     0.208380000000     0.366950000000    -0.00547712 
C108     C      0.282040000000     0.228150000000     0.398180000000    -0.00548793 
C109     C      0.266230000000     0.264780000000     0.413320000000    -0.0750978  
C110     C      0.230270000000     0.281250000000     0.396640000000    -0.00549508 
C111     C      0.282790000000     0.228920000000     0.116950000000    -0.00549311 
C112     C      0.266320000000     0.264880000000     0.100260000000    -0.0754138  
C113     C      0.229710000000     0.280700000000     0.115410000000    -0.00543473 
C114     C      0.209940000000     0.260940000000     0.146640000000    -0.00560165 
C115     C      0.226400000000     0.224970000000     0.163320000000    -0.0751834  
C116     C      0.263020000000     0.209160000000     0.148180000000    -0.00554807 
C117     C      0.518120000000     0.315950000000     0.041600000000    -0.00557376 
C118     C      0.539500000000     0.316920000000     0.005790000000    -0.0770209  
C119     C      0.517280000000     0.317280000000     0.470130000000    -0.00557498 
C120     C      0.474480000000     0.317240000000     0.470290000000    -0.00563349 
C121     C      0.453100000000     0.316830000000     0.506110000000    -0.0753867  
C122     C      0.475320000000     0.315900000000     0.041760000000    -0.00550842 
C123     C      0.316920000000     0.473830000000     0.471450000000    -0.00572622 
C124     C      0.318050000000     0.451680000000     0.007140000000    -0.0769122  
C125     C      0.318580000000     0.473140000000     0.042920000000    -0.00568637 
C126     C      0.318530000000     0.515940000000     0.042990000000    -0.00544066 
C127     C      0.317970000000     0.538090000000     0.507290000000    -0.0756631  
C128     C      0.316880000000     0.516620000000     0.471530000000    -0.00540198 
C129     C      0.319690000000     0.406470000000     0.507020000000     0.349415   
C130     C      0.287120000000     0.285680000000     0.946330000000     0.348932   
C131     C      0.407890000000     0.318380000000     0.006310000000     0.347506   
C132     C      0.287190000000     0.285760000000     0.567230000000     0.349468   
C133     C      0.319510000000     0.583300000000     0.007310000000     0.347621   
C134     C      0.286930000000     0.703960000000     0.567230000000     0.349635   
C135     C      0.407600000000     0.671520000000     0.507120000000     0.34958    
C136     C      0.286750000000     0.704120000000     0.946310000000     0.348586   
C137     C      0.584700000000     0.318560000000     0.505670000000     0.349575   
C138     C      0.705370000000     0.286120000000     0.945560000000     0.349523   
C139     C      0.672790000000     0.406780000000     0.005480000000     0.347546   
C140     C      0.705550000000     0.285960000000     0.566480000000     0.349141   
C141     C      0.672610000000     0.583600000000     0.505770000000     0.3497     
C142     C      0.705110000000     0.704320000000     0.945560000000     0.349313   
C143     C      0.584410000000     0.671700000000     0.006470000000     0.347163   
C144     C      0.705180000000     0.704400000000     0.566460000000     0.34927    
C145     C      0.819690000000     0.083590000000     0.757600000000     0.349603   
C146     C      0.787310000000     0.204190000000     0.817920000000     0.35005    
C147     C      0.907900000000     0.171690000000     0.757800000000     0.349826   
C148     C      0.787010000000     0.204510000000     0.697000000000     0.349039   
C149     C      0.907590000000     0.818560000000     0.755600000000     0.349551   
C150     C      0.786800000000     0.786000000000     0.816470000000     0.349439   
C151     C      0.819510000000     0.906780000000     0.756640000000     0.3497     
C152     C      0.786870000000     0.786090000000     0.695560000000     0.349435   
C153     C      0.084400000000     0.818390000000     0.755000000000     0.349488   
C154     C      0.204990000000     0.785890000000     0.694870000000     0.349875   
C155     C      0.172610000000     0.906480000000     0.755180000000     0.34965    
C156     C      0.205290000000     0.785570000000     0.815790000000     0.348935   
C157     C      0.084710000000     0.171520000000     0.757190000000     0.349508   
C158     C      0.205430000000     0.203990000000     0.817240000000     0.349444   
C159     C      0.172790000000     0.083300000000     0.756140000000     0.349608   
C160     C      0.205500000000     0.204080000000     0.696330000000     0.349231   
C161     C      0.175360000000     0.973010000000     0.791220000000    -0.00549953 
C162     C      0.174240000000     0.951690000000     0.755380000000    -0.0754195  
C163     C      0.173750000000     0.973980000000     0.719760000000    -0.00559813 
C164     C      0.173790000000     0.016780000000     0.719990000000    -0.00559662 
C165     C      0.174340000000     0.038090000000     0.755850000000    -0.0754198  
C166     C      0.175410000000     0.015800000000     0.791460000000    -0.0055582  
C167     C      0.017800000000     0.815640000000     0.790890000000    -0.00554092 
C168     C      0.039190000000     0.816840000000     0.755090000000    -0.0753817  
C169     C      0.016980000000     0.817510000000     0.719430000000    -0.00563527 
C170     C      0.974180000000     0.817560000000     0.719580000000    -0.00557314 
C171     C      0.952790000000     0.816930000000     0.755400000000    -0.0754608  
C172     C      0.975010000000     0.815680000000     0.791040000000    -0.00549335 
C173     C      0.816970000000     0.017070000000     0.721560000000    -0.00554532 
C174     C      0.818060000000     0.038390000000     0.757410000000    -0.0754536  
C175     C      0.818530000000     0.016100000000     0.793030000000    -0.0055823  
C176     C      0.818480000000     0.973300000000     0.792790000000    -0.00547432 
C177     C      0.817970000000     0.951980000000     0.756930000000    -0.0755284  
C178     C      0.816920000000     0.974280000000     0.721320000000    -0.00557249 
C179     C      0.975320000000     0.172540000000     0.793360000000    -0.00550752 
C180     C      0.953110000000     0.173240000000     0.757700000000    -0.0755208  
C181     C      0.974500000000     0.174470000000     0.721900000000    -0.00550566 
C182     C      0.017290000000     0.174430000000     0.721750000000    -0.00561661 
C183     C      0.039510000000     0.173150000000     0.757400000000    -0.075407   
C184     C      0.018120000000     0.172490000000     0.793210000000    -0.00557455 
C185     C      0.762610000000     0.709390000000     0.897390000000    -0.00540382 
C186     C      0.725980000000     0.725190000000     0.912520000000    -0.0749004  
C187     C      0.709500000000     0.761140000000     0.895830000000    -0.00546365 
C188     C      0.729270000000     0.780910000000     0.864600000000    -0.00529545 
C189     C      0.765900000000     0.765110000000     0.849470000000    -0.0751658  
C190     C      0.782380000000     0.729150000000     0.866160000000    -0.00537003 
C191     C      0.762020000000     0.708820000000     0.616160000000    -0.00548403 
C192     C      0.726070000000     0.725300000000     0.599470000000    -0.0751     
C193     C      0.710280000000     0.761940000000     0.614590000000    -0.00547587 
C194     C      0.730050000000     0.781710000000     0.645820000000    -0.00546907 
C195     C      0.765990000000     0.765220000000     0.662520000000    -0.0751552  
C196     C      0.781790000000     0.728590000000     0.647390000000    -0.00543946 
C197     C      0.710210000000     0.228860000000     0.897170000000    -0.00542831 
C198     C      0.726310000000     0.265190000000     0.912900000000    -0.0751176  
C199     C      0.762650000000     0.281280000000     0.897190000000    -0.00544073 
C200     C      0.782500000000     0.261430000000     0.866330000000    -0.00524054 
C201     C      0.766400000000     0.225110000000     0.850610000000    -0.0755097  
C202     C      0.730060000000     0.209010000000     0.866320000000    -0.00528494 
C203     C      0.762630000000     0.281320000000     0.615960000000    -0.00535003 
C204     C      0.726400000000     0.265130000000     0.599840000000    -0.0750574  
C205     C      0.710220000000     0.228870000000     0.615950000000    -0.00543002 
C206     C      0.729910000000     0.209180000000     0.647550000000    -0.00546735 
C207     C      0.766150000000     0.225370000000     0.663660000000    -0.0749387  
C208     C      0.782330000000     0.261630000000     0.647560000000    -0.00553692 
C209     C      0.673800000000     0.474140000000     0.969800000000    -0.0037277  
C210     C      0.674330000000     0.451990000000     0.005500000000    -0.0771843  
C211     C      0.675400000000     0.473460000000     0.541270000000    -0.00557155 
C212     C      0.675350000000     0.516250000000     0.541340000000    -0.00551817 
C213     C      0.674250000000     0.538400000000     0.505650000000    -0.0755916  
C214     C      0.673750000000     0.516940000000     0.969880000000    -0.00369435 
C215     C      0.262400000000     0.780890000000     0.865230000000    -0.00532826 
C216     C      0.226150000000     0.764710000000     0.849130000000    -0.074869   
C217     C      0.209960000000     0.728460000000     0.865240000000    -0.0053455  
C218     C      0.229650000000     0.708770000000     0.896850000000    -0.00546762 
C219     C      0.265910000000     0.724950000000     0.912950000000    -0.0745947  
C220     C      0.282100000000     0.761200000000     0.896830000000    -0.00550136 
C221     C      0.282080000000     0.761230000000     0.615600000000    -0.00545337 
C222     C      0.265990000000     0.724890000000     0.599890000000    -0.0753929  
C223     C      0.229660000000     0.708780000000     0.615620000000    -0.00549059 
C224     C      0.209810000000     0.728630000000     0.646470000000    -0.00536126 
C225     C      0.225900000000     0.764970000000     0.662190000000    -0.0755403  
C226     C      0.262230000000     0.781080000000     0.646450000000    -0.00540909 
C227     C      0.474180000000     0.674100000000     0.971190000000    -0.00367186 
C228     C      0.452800000000     0.673160000000     0.507000000000    -0.0755089  
C229     C      0.475020000000     0.672830000000     0.542660000000    -0.00559357 
C230     C      0.517820000000     0.672870000000     0.542500000000    -0.00559056 
C231     C      0.539200000000     0.673250000000     0.006680000000    -0.0770118  
C232     C      0.516970000000     0.674150000000     0.971030000000    -0.00377869 
C233     C      0.210500000000     0.261480000000     0.865410000000    -0.00527045 
C234     C      0.226310000000     0.224860000000     0.850270000000    -0.075186   
C235     C      0.262270000000     0.208380000000     0.866950000000    -0.00532195 
C236     C      0.282040000000     0.228150000000     0.898180000000    -0.00551116 
C237     C      0.266230000000     0.264780000000     0.913320000000    -0.074702   
C238     C      0.230270000000     0.281250000000     0.896640000000    -0.00554604 
C239     C      0.282790000000     0.228920000000     0.616950000000    -0.00544329 
C240     C      0.266320000000     0.264880000000     0.600260000000    -0.075233   
C241     C      0.229710000000     0.280700000000     0.615410000000    -0.00540277 
C242     C      0.209940000000     0.260940000000     0.646640000000    -0.00552866 
C243     C      0.226400000000     0.224970000000     0.663320000000    -0.0750704  
C244     C      0.263020000000     0.209160000000     0.648180000000    -0.00548498 
C245     C      0.518120000000     0.315950000000     0.541600000000    -0.00553295 
C246     C      0.539500000000     0.316920000000     0.505790000000    -0.0755082  
C247     C      0.517280000000     0.317280000000     0.970130000000    -0.00382105 
C248     C      0.474480000000     0.317230000000     0.970290000000    -0.0036518  
C249     C      0.453100000000     0.316830000000     0.006110000000    -0.077175   
C250     C      0.475330000000     0.315900000000     0.541760000000    -0.00562115 
C251     C      0.316920000000     0.473830000000     0.971450000000    -0.00387518 
C252     C      0.318060000000     0.451680000000     0.507140000000    -0.0753006  
C253     C      0.318580000000     0.473140000000     0.542920000000    -0.00571001 
C254     C      0.318530000000     0.515940000000     0.542990000000    -0.00546861 
C255     C      0.317970000000     0.538090000000     0.007290000000    -0.077281   
C256     C      0.316880000000     0.516620000000     0.971530000000    -0.00354752 
H1       H      0.175790000000     0.956640000000     0.319150000000     0.0510517  
H2       H      0.172910000000     0.958380000000     0.191670000000     0.0507397  
H3       H      0.172980000000     0.033150000000     0.192080000000     0.0507667  
H4       H      0.175870000000     0.031390000000     0.319560000000     0.0510485  
H5       H      0.034100000000     0.815070000000     0.318850000000     0.0510674  
H6       H      0.032640000000     0.818420000000     0.191380000000     0.0507463  
H7       H      0.957870000000     0.818500000000     0.191640000000     0.0507619  
H8       H      0.959350000000     0.815140000000     0.319110000000     0.0510684  
H9       H      0.816560000000     0.033440000000     0.193640000000     0.0509542  
H10      H      0.819340000000     0.031700000000     0.321120000000     0.0508815  
H11      H      0.819270000000     0.956920000000     0.320700000000     0.0508801  
H12      H      0.816480000000     0.958690000000     0.193230000000     0.0509073  
H13      H      0.959660000000     0.171600000000     0.321420000000     0.0508432  
H14      H      0.958200000000     0.175060000000     0.193950000000     0.0509448  
H15      H      0.032950000000     0.174990000000     0.193690000000     0.0509519  
H16      H      0.034430000000     0.171520000000     0.321150000000     0.0508912  
H17      H      0.776030000000     0.681720000000     0.409670000000     0.0511749  
H18      H      0.681310000000     0.774050000000     0.406880000000     0.0512617  
H19      H      0.715850000000     0.808570000000     0.352320000000     0.0511569  
H20      H      0.810570000000     0.716250000000     0.355110000000     0.051283   
H21      H      0.774920000000     0.680620000000     0.105110000000     0.0511095  
H22      H      0.682620000000     0.775360000000     0.102320000000     0.0509937  
H23      H      0.717150000000     0.809900000000     0.156880000000     0.0511659  
H24      H      0.809450000000     0.715160000000     0.159670000000     0.0510771  
H25      H      0.682250000000     0.215720000000     0.408700000000     0.0511253  
H26      H      0.775790000000     0.309230000000     0.408720000000     0.0511224  
H27      H      0.810460000000     0.274570000000     0.354810000000     0.0511008  
H28      H      0.716920000000     0.181060000000     0.354790000000     0.0511374  
H29      H      0.775820000000     0.309240000000     0.104160000000     0.0511225  
H30      H      0.682320000000     0.215670000000     0.104140000000     0.0511343  
H31      H      0.716730000000     0.181260000000     0.159340000000     0.0512141  
H32      H      0.810230000000     0.274820000000     0.159370000000     0.0512203  
H33      H      0.673000000000     0.458420000000     0.441780000000     0.0508862  
H34      H      0.675850000000     0.457210000000     0.069250000000     0.0509764  
H35      H      0.675780000000     0.531960000000     0.069380000000     0.0509588  
H36      H      0.672920000000     0.533200000000     0.441900000000     0.0508676  
H37      H      0.275590000000     0.808790000000     0.353420000000     0.0513134  
H38      H      0.182050000000     0.715270000000     0.353450000000     0.0513086  
H39      H      0.216460000000     0.680860000000     0.408660000000     0.0512951  
H40      H      0.310000000000     0.774380000000     0.408630000000     0.0513255  
H41      H      0.310030000000     0.774380000000     0.104070000000     0.0509643  
H42      H      0.216530000000     0.680820000000     0.104090000000     0.0509581  
H43      H      0.181860000000     0.715480000000     0.158010000000     0.0510077  
H44      H      0.275360000000     0.809040000000     0.157980000000     0.0510375  
H45      H      0.457870000000     0.674400000000     0.443230000000     0.0510455  
H46      H      0.459370000000     0.672120000000     0.070720000000     0.0507951  
H47      H      0.534140000000     0.672200000000     0.070440000000     0.0508282  
H48      H      0.532620000000     0.674480000000     0.442960000000     0.0510399  
H49      H      0.182830000000     0.274900000000     0.353140000000     0.0511519  
H50      H      0.275170000000     0.180200000000     0.355890000000     0.0512723  
H51      H      0.309710000000     0.214730000000     0.410450000000     0.0511737  
H52      H      0.217360000000     0.309440000000     0.407700000000     0.0512885  
H53      H      0.310970000000     0.216010000000     0.105880000000     0.0510828  
H54      H      0.216290000000     0.308380000000     0.103140000000     0.0509628  
H55      H      0.181750000000     0.273840000000     0.157700000000     0.051214   
H56      H      0.276430000000     0.181480000000     0.160450000000     0.0510788  
H57      H      0.534430000000     0.315630000000     0.069550000000     0.050987   
H58      H      0.532940000000     0.318000000000     0.442070000000     0.0508835  
H59      H      0.458160000000     0.317930000000     0.442350000000     0.0509176  
H60      H      0.459680000000     0.315540000000     0.069830000000     0.0509423  
H61      H      0.316470000000     0.458120000000     0.443420000000     0.0511005  
H62      H      0.319430000000     0.456880000000     0.070890000000     0.0508468  
H63      H      0.319350000000     0.531660000000     0.071020000000     0.0507532  
H64      H      0.316400000000     0.532870000000     0.443540000000     0.0510268  
H65      H      0.175790000000     0.956640000000     0.819140000000     0.0512206  
H66      H      0.172910000000     0.958380000000     0.691670000000     0.0508865  
H67      H      0.172980000000     0.033150000000     0.692080000000     0.0509019  
H68      H      0.175870000000     0.031390000000     0.819560000000     0.051202   
H69      H      0.034100000000     0.815070000000     0.818850000000     0.051228   
H70      H      0.032640000000     0.818420000000     0.691380000000     0.0508843  
H71      H      0.957870000000     0.818500000000     0.691640000000     0.0508951  
H72      H      0.959350000000     0.815140000000     0.819110000000     0.0511978  
H73      H      0.816560000000     0.033440000000     0.693640000000     0.0510795  
H74      H      0.819340000000     0.031700000000     0.821120000000     0.0510382  
H75      H      0.819270000000     0.956920000000     0.820710000000     0.0510218  
H76      H      0.816480000000     0.958690000000     0.693230000000     0.0510622  
H77      H      0.959660000000     0.171600000000     0.821420000000     0.0509984  
H78      H      0.958200000000     0.175060000000     0.693950000000     0.0510758  
H79      H      0.032950000000     0.174990000000     0.693690000000     0.0510864  
H80      H      0.034430000000     0.171520000000     0.821150000000     0.0510458  
H81      H      0.776030000000     0.681720000000     0.909670000000     0.0514185  
H82      H      0.681310000000     0.774040000000     0.906880000000     0.0515155  
H83      H      0.715850000000     0.808580000000     0.852320000000     0.0512581  
H84      H      0.810570000000     0.716260000000     0.855110000000     0.0514202  
H85      H      0.774920000000     0.680620000000     0.605110000000     0.0512995  
H86      H      0.682610000000     0.775360000000     0.602320000000     0.0511832  
H87      H      0.717150000000     0.809900000000     0.656880000000     0.0512875  
H88      H      0.809450000000     0.715150000000     0.659670000000     0.0511727  
H89      H      0.682250000000     0.215720000000     0.908700000000     0.0513949  
H90      H      0.775790000000     0.309240000000     0.908720000000     0.0513823  
H91      H      0.810460000000     0.274570000000     0.854810000000     0.0512093  
H92      H      0.716920000000     0.181060000000     0.854790000000     0.0512403  
H93      H      0.775820000000     0.309240000000     0.604160000000     0.0512789  
H94      H      0.682320000000     0.215670000000     0.604140000000     0.0513074  
H95      H      0.716730000000     0.181260000000     0.659340000000     0.0513288  
H96      H      0.810230000000     0.274820000000     0.659370000000     0.0513422  
H97      H      0.673000000000     0.458420000000     0.941770000000     0.0507607  
H98      H      0.675850000000     0.457210000000     0.569250000000     0.051085   
H99      H      0.675780000000     0.531960000000     0.569380000000     0.0510528  
H100     H      0.672920000000     0.533200000000     0.941900000000     0.0507757  
H101     H      0.275590000000     0.808790000000     0.853420000000     0.0514298  
H102     H      0.182050000000     0.715270000000     0.853440000000     0.0514224  
H103     H      0.216460000000     0.680860000000     0.908660000000     0.0515589  
H104     H      0.310000000000     0.774390000000     0.908630000000     0.0515772  
H105     H      0.310030000000     0.774380000000     0.604070000000     0.0511563  
H106     H      0.216530000000     0.680820000000     0.604090000000     0.0511504  
H107     H      0.181860000000     0.715480000000     0.658010000000     0.0511182  
H108     H      0.275360000000     0.809040000000     0.657980000000     0.0511458  
H109     H      0.457880000000     0.674400000000     0.943240000000     0.0509506  
H110     H      0.459370000000     0.672120000000     0.570720000000     0.0509029  
H111     H      0.534140000000     0.672200000000     0.570440000000     0.0509196  
H112     H      0.532620000000     0.674480000000     0.942960000000     0.0509478  
H113     H      0.182830000000     0.274900000000     0.853140000000     0.0512574  
H114     H      0.275170000000     0.180200000000     0.855890000000     0.0513851  
H115     H      0.309710000000     0.214730000000     0.910450000000     0.0514435  
H116     H      0.217360000000     0.309430000000     0.907700000000     0.0515592  
H117     H      0.310970000000     0.216010000000     0.605890000000     0.0512717  
H118     H      0.216290000000     0.308370000000     0.603140000000     0.0511673  
H119     H      0.181750000000     0.273840000000     0.657700000000     0.0513267  
H120     H      0.276430000000     0.181480000000     0.660450000000     0.0511895  
H121     H      0.534420000000     0.315630000000     0.569550000000     0.0510719  
H122     H      0.532930000000     0.318010000000     0.942070000000     0.050799   
H123     H      0.458160000000     0.317930000000     0.942340000000     0.0507719  
H124     H      0.459680000000     0.315540000000     0.569830000000     0.0510706  
H125     H      0.316470000000     0.458120000000     0.943420000000     0.0509954  
H126     H      0.319430000000     0.456880000000     0.570890000000     0.0509484  
H127     H      0.319350000000     0.531660000000     0.571020000000     0.0508567  
H128     H      0.316400000000     0.532870000000     0.943540000000     0.0509207  
In1      In     0.325310000000     0.323890000000     0.506730000000     2.40469    
In2      In     0.325020000000     0.665890000000     0.507190000000     2.40465    
In3      In     0.667280000000     0.324190000000     0.505600000000     2.40478    
In4      In     0.666990000000     0.666190000000     0.506060000000     2.40479    
In5      In     0.825310000000     0.166170000000     0.257800000000     2.40479    
In6      In     0.825010000000     0.824190000000     0.256060000000     2.40433    
In7      In     0.166990000000     0.823900000000     0.255000000000     2.40432    
In8      In     0.167290000000     0.165890000000     0.256730000000     2.40456    
In9      In     0.325310000000     0.323890000000     0.006730000000     2.39809    
In10     In     0.325020000000     0.665890000000     0.007190000000     2.39794    
In11     In     0.667290000000     0.324190000000     0.005600000000     2.39816    
In12     In     0.666990000000     0.666190000000     0.006060000000     2.39823    
In13     In     0.825310000000     0.166170000000     0.757800000000     2.40476    
In14     In     0.825010000000     0.824190000000     0.756060000000     2.40468    
In15     In     0.166990000000     0.823900000000     0.755000000000     2.40448    
In16     In     0.167290000000     0.165890000000     0.756730000000     2.40464    
O1       O      0.273560000000     0.318080000000     0.051340000000    -0.483743   
O2       O      0.320080000000     0.272690000000     0.052660000000    -0.482701   
O3       O      0.274060000000     0.318580000000     0.460870000000    -0.482899   
O4       O      0.321700000000     0.385330000000     0.538270000000    -0.483331   
O5       O      0.387450000000     0.318920000000     0.037720000000    -0.482026   
O6       O      0.320160000000     0.385970000000     0.975640000000    -0.479826   
O7       O      0.319460000000     0.272060000000     0.462210000000    -0.483797   
O8       O      0.386680000000     0.320260000000     0.475100000000    -0.483558   
O9       O      0.319360000000     0.717480000000     0.461670000000    -0.482905   
O10      O      0.273410000000     0.671490000000     0.461670000000    -0.482657   
O11      O      0.273580000000     0.671350000000     0.052130000000    -0.48355    
O12      O      0.321330000000     0.603880000000     0.038610000000    -0.482386   
O13      O      0.386460000000     0.670680000000     0.475840000000    -0.48318    
O14      O      0.320120000000     0.604360000000     0.475990000000    -0.483232   
O15      O      0.319530000000     0.717310000000     0.052140000000    -0.483625   
O16      O      0.387080000000     0.669870000000     0.038470000000    -0.482172   
O17      O      0.672950000000     0.272590000000     0.051110000000    -0.482678   
O18      O      0.718880000000     0.318600000000     0.051130000000    -0.482534   
O19      O      0.718730000000     0.318710000000     0.460670000000    -0.483879   
O20      O      0.605220000000     0.320230000000     0.474320000000    -0.483104   
O21      O      0.672160000000     0.385710000000     0.036800000000    -0.482396   
O22      O      0.605840000000     0.319370000000     0.036950000000    -0.482191   
O23      O      0.672760000000     0.272780000000     0.460640000000    -0.483923   
O24      O      0.671000000000     0.386200000000     0.474180000000    -0.483285   
O25      O      0.718230000000     0.671490000000     0.051930000000    -0.48269    
O26      O      0.672850000000     0.718030000000     0.050570000000    -0.483594   
O27      O      0.718760000000     0.672010000000     0.461460000000    -0.483766   
O28      O      0.670630000000     0.604750000000     0.474530000000    -0.483489   
O29      O      0.605620000000     0.669840000000     0.037690000000    -0.482584   
O30      O      0.672120000000     0.604110000000     0.037150000000    -0.481874   
O31      O      0.672210000000     0.717380000000     0.460120000000    -0.482891   
O32      O      0.604850000000     0.671140000000     0.475060000000    -0.482876   
O33      O      0.773670000000     0.171880000000     0.212340000000    -0.482934   
O34      O      0.819650000000     0.217830000000     0.212340000000    -0.482751   
O35      O      0.773950000000     0.171600000000     0.302810000000    -0.484      
O36      O      0.821420000000     0.104050000000     0.288990000000    -0.483062   
O37      O      0.886780000000     0.171170000000     0.226510000000    -0.483211   
O38      O      0.820440000000     0.104780000000     0.226360000000    -0.483316   
O39      O      0.819900000000     0.217550000000     0.302800000000    -0.48399    
O40      O      0.887370000000     0.169790000000     0.289130000000    -0.483283   
O41      O      0.819160000000     0.772420000000     0.211480000000    -0.484069   
O42      O      0.773830000000     0.819000000000     0.210100000000    -0.482873   
O43      O      0.819720000000     0.772960000000     0.301950000000    -0.482807   
O44      O      0.886390000000     0.820710000000     0.224400000000    -0.483527   
O45      O      0.819910000000     0.886400000000     0.225190000000    -0.482754   
O46      O      0.887150000000     0.818900000000     0.287020000000    -0.482601   
O47      O      0.773160000000     0.818310000000     0.300560000000    -0.48388    
O48      O      0.821520000000     0.885510000000     0.287810000000    -0.4836     
O49      O      0.172640000000     0.772250000000     0.300470000000    -0.482667   
O50      O      0.218640000000     0.818190000000     0.300440000000    -0.482909   
O51      O      0.172420000000     0.772510000000     0.210000000000    -0.483993   
O52      O      0.104930000000     0.820270000000     0.223660000000    -0.483142   
O53      O      0.171890000000     0.885300000000     0.286430000000    -0.483065   
O54      O      0.105520000000     0.818930000000     0.286290000000    -0.483076   
O55      O      0.218340000000     0.818490000000     0.209970000000    -0.483982   
O56      O      0.170850000000     0.886030000000     0.223800000000    -0.483013   
O57      O      0.172580000000     0.217120000000     0.210850000000    -0.482841   
O58      O      0.219130000000     0.171750000000     0.212220000000    -0.483822   
O59      O      0.173130000000     0.217650000000     0.301320000000    -0.484074   
O60      O      0.105910000000     0.169350000000     0.288390000000    -0.483439   
O61      O      0.172410000000     0.103680000000     0.287600000000    -0.482603   
O62      O      0.105160000000     0.171200000000     0.225770000000    -0.482695   
O63      O      0.218480000000     0.171090000000     0.302680000000    -0.48286    
O64      O      0.170760000000     0.104570000000     0.224980000000    -0.483741   
O65      O      0.273560000000     0.318080000000     0.551340000000    -0.483939   
O66      O      0.320080000000     0.272690000000     0.552660000000    -0.482903   
O67      O      0.274060000000     0.318580000000     0.960870000000    -0.481353   
O68      O      0.321700000000     0.385330000000     0.038270000000    -0.482411   
O69      O      0.387450000000     0.318910000000     0.537730000000    -0.482691   
O70      O      0.320160000000     0.385970000000     0.475640000000    -0.482678   
O71      O      0.319460000000     0.272060000000     0.962210000000    -0.482239   
O72      O      0.386690000000     0.320260000000     0.975100000000    -0.480734   
O73      O      0.319360000000     0.717480000000     0.961670000000    -0.481351   
O74      O      0.273410000000     0.671490000000     0.961670000000    -0.481094   
O75      O      0.273580000000     0.671350000000     0.552130000000    -0.483766   
O76      O      0.321330000000     0.603880000000     0.538610000000    -0.483303   
O77      O      0.386470000000     0.670680000000     0.975840000000    -0.480272   
O78      O      0.320120000000     0.604360000000     0.975990000000    -0.480372   
O79      O      0.319530000000     0.717310000000     0.552140000000    -0.483839   
O80      O      0.387080000000     0.669870000000     0.538470000000    -0.483059   
O81      O      0.672950000000     0.272590000000     0.551110000000    -0.482943   
O82      O      0.718880000000     0.318590000000     0.551130000000    -0.482768   
O83      O      0.718730000000     0.318710000000     0.960670000000    -0.482414   
O84      O      0.605220000000     0.320230000000     0.974320000000    -0.480192   
O85      O      0.672160000000     0.385710000000     0.536800000000    -0.483305   
O86      O      0.605840000000     0.319370000000     0.536950000000    -0.483152   
O87      O      0.672760000000     0.272780000000     0.960640000000    -0.482368   
O88      O      0.671000000000     0.386200000000     0.974180000000    -0.480435   
O89      O      0.718230000000     0.671490000000     0.551930000000    -0.482905   
O90      O      0.672850000000     0.718030000000     0.550570000000    -0.48379    
O91      O      0.718750000000     0.672010000000     0.961460000000    -0.482411   
O92      O      0.670630000000     0.604750000000     0.974530000000    -0.480682   
O93      O      0.605620000000     0.669840000000     0.537680000000    -0.483686   
O94      O      0.672120000000     0.604110000000     0.537150000000    -0.482713   
O95      O      0.672220000000     0.717380000000     0.960120000000    -0.4815     
O96      O      0.604850000000     0.671140000000     0.975060000000    -0.479965   
O97      O      0.773670000000     0.171880000000     0.712340000000    -0.482856   
O98      O      0.819650000000     0.217830000000     0.712340000000    -0.482673   
O99      O      0.773950000000     0.171600000000     0.802810000000    -0.483988   
O100     O      0.821430000000     0.104050000000     0.788990000000    -0.48296    
O101     O      0.886780000000     0.171170000000     0.726510000000    -0.483138   
O102     O      0.820440000000     0.104780000000     0.726360000000    -0.483215   
O103     O      0.819890000000     0.217550000000     0.802800000000    -0.48404    
O104     O      0.887380000000     0.169790000000     0.789130000000    -0.483126   
O105     O      0.819160000000     0.772420000000     0.711480000000    -0.484031   
O106     O      0.773830000000     0.819000000000     0.710100000000    -0.482844   
O107     O      0.819730000000     0.772960000000     0.801950000000    -0.482666   
O108     O      0.886390000000     0.820710000000     0.724400000000    -0.483425   
O109     O      0.819920000000     0.886400000000     0.725190000000    -0.482694   
O110     O      0.887140000000     0.818900000000     0.787020000000    -0.482551   
O111     O      0.773170000000     0.818310000000     0.800560000000    -0.483939   
O112     O      0.821520000000     0.885510000000     0.787810000000    -0.483494   
O113     O      0.172640000000     0.772250000000     0.800460000000    -0.482638   
O114     O      0.218640000000     0.818190000000     0.800440000000    -0.482825   
O115     O      0.172420000000     0.772510000000     0.710000000000    -0.483913   
O116     O      0.104930000000     0.820260000000     0.723660000000    -0.483049   
O117     O      0.171890000000     0.885300000000     0.786430000000    -0.483031   
O118     O      0.105520000000     0.818930000000     0.786290000000    -0.482976   
O119     O      0.218340000000     0.818490000000     0.709970000000    -0.48392    
O120     O      0.170850000000     0.886030000000     0.723800000000    -0.482996   
O121     O      0.172580000000     0.217120000000     0.710850000000    -0.48282    
O122     O      0.219130000000     0.171750000000     0.712220000000    -0.483804   
O123     O      0.173130000000     0.217650000000     0.801320000000    -0.48395    
O124     O      0.105910000000     0.169350000000     0.788390000000    -0.483336   
O125     O      0.172410000000     0.103680000000     0.787600000000    -0.482488   
O126     O      0.105160000000     0.171200000000     0.725770000000    -0.4826     
O127     O      0.218480000000     0.171090000000     0.802680000000    -0.482735   
O128     O      0.170760000000     0.104570000000     0.724980000000    -0.483633   


