data_structure

_audit_creation_method RASPA-1.0
_audit_creation_date 2023-5-22
_audit_author_name 'Poobodin Mano'

_cell_length_a    33.4599
_cell_length_b    33.6357
_cell_length_c    29.9328
_cell_angle_alpha 90.011
_cell_angle_beta  90.0052
_cell_angle_gamma 106.204
_cell_volume      32349.5

_symmetry_cell_setting          triclinic
_symmetry_space_group_name_Hall 'P 1'
_symmetry_space_group_name_H-M  'P 1'
_symmetry_Int_Tables_number     1

_symmetry_equiv_pos_as_xyz 'x,y,z'

loop_
_atom_site_label
_atom_site_type_symbol
_atom_site_fract_x
_atom_site_fract_y
_atom_site_fract_z
_atom_site_charge
C1       C      0.229640000000     0.417560000000     0.452760000000     0.349468   
C2       C      0.108580000000     0.296500000000     0.458390000000     0.353417   
C3       C      0.175510000000     0.344390000000     0.337770000000     0.347974   
C4       C      0.233170000000     0.297050000000     0.460000000000     0.349728   
C5       C      0.454230000000     0.191110000000     0.529350000000     0.351641   
C6       C      0.332180000000     0.072650000000     0.523550000000     0.351039   
C7       C      0.377170000000     0.132330000000     0.645290000000     0.349063   
C8       C      0.336880000000     0.199410000000     0.525720000000     0.349106   
C9       C      0.332810000000     0.073120000000     0.959430000000     0.351099   
C10      C      0.454930000000     0.191460000000     0.953370000000     0.351682   
C11      C      0.377520000000     0.132570000000     0.837570000000     0.349231   
C12      C      0.337640000000     0.199940000000     0.957140000000     0.349082   
C13      C      0.109330000000     0.296860000000     0.024300000000     0.353684   
C14      C      0.230280000000     0.418040000000     0.030200000000     0.3494     
C15      C      0.175950000000     0.344680000000     0.145040000000     0.347963   
C16      C      0.233970000000     0.297620000000     0.022830000000     0.349803   
C17      C      0.514360000000     0.205310000000     0.007480000000    -0.00632981 
C18      C      0.495050000000     0.217970000000     0.970610000000    -0.0755375  
C19      C      0.013530000000     0.257010000000     0.951510000000    -0.00611283 
C20      C      0.050500000000     0.282900000000     0.969060000000    -0.0050104  
C21      C      0.069690000000     0.270260000000     0.006060000000    -0.0779715  
C22      C      0.051260000000     0.231160000000     0.025000000000    -0.00469211 
C23      C      0.238220000000     0.487770000000     0.995770000000    -0.00626283 
C24      C      0.256410000000     0.458320000000     0.013420000000    -0.0755779  
C25      C      0.300080000000     0.467000000000     0.013510000000    -0.00583295 
C26      C      0.325040000000     0.504220000000     0.995940000000    -0.00584027 
C27      C      0.306830000000     0.033570000000     0.978060000000    -0.0768668  
C28      C      0.263170000000     0.025040000000     0.978360000000    -0.00483475 
C29      C      0.309100000000     0.232410000000     0.019780000000    -0.00533818 
C30      C      0.312760000000     0.226620000000     0.973720000000    -0.0721255  
C31      C      0.291010000000     0.245080000000     0.943720000000    -0.00518329 
C32      C      0.265390000000     0.268350000000     0.959610000000    -0.0049725  
C33      C      0.261380000000     0.273720000000     0.005720000000    -0.073289   
C34      C      0.283740000000     0.255880000000     0.035640000000    -0.00446812 
C35      C      0.342220000000     0.132710000000     0.718270000000    -0.00470786 
C36      C      0.376490000000     0.127550000000     0.694340000000    -0.0758232  
C37      C      0.410260000000     0.120590000000     0.717930000000    -0.00607761 
C38      C      0.410350000000     0.120650000000     0.764840000000    -0.0059976  
C39      C      0.376670000000     0.127670000000     0.788540000000    -0.0759921  
C40      C      0.342310000000     0.132770000000     0.764720000000    -0.00461178 
C41      C      0.161880000000     0.376230000000     0.264890000000    -0.00677684 
C42      C      0.172700000000     0.344580000000     0.288520000000    -0.0747241  
C43      C      0.182530000000     0.312700000000     0.264570000000    -0.00472508 
C44      C      0.182640000000     0.312780000000     0.218180000000    -0.00460243 
C45      C      0.172920000000     0.344730000000     0.194270000000    -0.0748516  
C46      C      0.161990000000     0.376300000000     0.217930000000    -0.00664985 
C47      C      0.049790000000     0.282540000000     0.513660000000    -0.00524368 
C48      C      0.068930000000     0.269930000000     0.476600000000    -0.0777572  
C49      C      0.050450000000     0.230850000000     0.457590000000    -0.00483254 
C50      C      0.013570000000     0.205000000000     0.475120000000    -0.00630445 
C51      C      0.494320000000     0.217630000000     0.512070000000    -0.0756765  
C52      C      0.512840000000     0.256650000000     0.531210000000    -0.00577807 
C53      C      0.262540000000     0.024560000000     0.504630000000    -0.00483101 
C54      C      0.306200000000     0.033090000000     0.504940000000    -0.0768853  
C55      C      0.324410000000     0.503720000000     0.487090000000    -0.0059901  
C56      C      0.299450000000     0.466500000000     0.469510000000    -0.00567521 
C57      C      0.255770000000     0.457820000000     0.469580000000    -0.0755912  
C58      C      0.237590000000     0.487290000000     0.487220000000    -0.00635638 
C59      C      0.264560000000     0.267760000000     0.523230000000    -0.00515328 
C60      C      0.260550000000     0.273120000000     0.477120000000    -0.0730416  
C61      C      0.282900000000     0.255260000000     0.447190000000    -0.00462177 
C62      C      0.308270000000     0.231800000000     0.463060000000    -0.00518704 
C63      C      0.311940000000     0.226040000000     0.509130000000    -0.0721809  
C64      C      0.290180000000     0.244500000000     0.539130000000    -0.00515993 
C65      C      0.229640000000     0.917550000000     0.452760000000     0.349423   
C66      C      0.108580000000     0.796500000000     0.458390000000     0.353416   
C67      C      0.175510000000     0.844390000000     0.337770000000     0.34798    
C68      C      0.233180000000     0.797060000000     0.460000000000     0.349678   
C69      C      0.454230000000     0.691110000000     0.529350000000     0.351657   
C70      C      0.332180000000     0.572650000000     0.523550000000     0.351036   
C71      C      0.377170000000     0.632330000000     0.645290000000     0.34908    
C72      C      0.336870000000     0.699410000000     0.525720000000     0.349075   
C73      C      0.332810000000     0.573120000000     0.959430000000     0.351085   
C74      C      0.454930000000     0.691460000000     0.953370000000     0.351566   
C75      C      0.377520000000     0.632570000000     0.837570000000     0.348779   
C76      C      0.337640000000     0.699940000000     0.957140000000     0.349184   
C77      C      0.109330000000     0.796860000000     0.024300000000     0.353674   
C78      C      0.230280000000     0.918040000000     0.030200000000     0.349528   
C79      C      0.175950000000     0.844680000000     0.145040000000     0.347872   
C80      C      0.233970000000     0.797620000000     0.022830000000     0.349808   
C81      C      0.514360000000     0.705310000000     0.007480000000    -0.00635253 
C82      C      0.495050000000     0.717970000000     0.970610000000    -0.0754887  
C83      C      0.013540000000     0.757010000000     0.951510000000    -0.00605472 
C84      C      0.050500000000     0.782900000000     0.969060000000    -0.0050396  
C85      C      0.069690000000     0.770260000000     0.006060000000    -0.0779525  
C86      C      0.051260000000     0.731160000000     0.025000000000    -0.00470973 
C87      C      0.238220000000     0.987770000000     0.995770000000    -0.00627524 
C88      C      0.256410000000     0.958310000000     0.013420000000    -0.0756457  
C89      C      0.300090000000     0.967000000000     0.013510000000    -0.00584443 
C90      C      0.325040000000     0.004220000000     0.995940000000    -0.00582252 
C91      C      0.306830000000     0.533570000000     0.978060000000    -0.0768348  
C92      C      0.263170000000     0.525050000000     0.978360000000    -0.00489371 
C93      C      0.309100000000     0.732410000000     0.019780000000    -0.00531815 
C94      C      0.312760000000     0.726620000000     0.973720000000    -0.0721591  
C95      C      0.291010000000     0.745080000000     0.943720000000    -0.00516683 
C96      C      0.265390000000     0.768350000000     0.959610000000    -0.0049794  
C97      C      0.261380000000     0.773720000000     0.005720000000    -0.0732838  
C98      C      0.283740000000     0.755880000000     0.035640000000    -0.00447616 
C99      C      0.342220000000     0.632710000000     0.718270000000    -0.00465833 
C100     C      0.376490000000     0.627550000000     0.694340000000    -0.0758597  
C101     C      0.410260000000     0.620590000000     0.717930000000    -0.00602908 
C102     C      0.410350000000     0.620650000000     0.764840000000    -0.00608854 
C103     C      0.376670000000     0.627670000000     0.788540000000    -0.0757989  
C104     C      0.342310000000     0.632770000000     0.764720000000    -0.00470312 
C105     C      0.161880000000     0.876220000000     0.264890000000    -0.00669987 
C106     C      0.172700000000     0.844580000000     0.288520000000    -0.0747548  
C107     C      0.182530000000     0.812700000000     0.264570000000    -0.00472592 
C108     C      0.182650000000     0.812780000000     0.218180000000    -0.00463546 
C109     C      0.172930000000     0.844730000000     0.194270000000    -0.0747936  
C110     C      0.161990000000     0.876300000000     0.217930000000    -0.00671644 
C111     C      0.049790000000     0.782540000000     0.513660000000    -0.00524639 
C112     C      0.068930000000     0.769930000000     0.476600000000    -0.0777553  
C113     C      0.050450000000     0.730850000000     0.457590000000    -0.00483412 
C114     C      0.013570000000     0.705000000000     0.475120000000    -0.00630027 
C115     C      0.494320000000     0.717630000000     0.512070000000    -0.0756849  
C116     C      0.512840000000     0.756650000000     0.531210000000    -0.00577715 
C117     C      0.262540000000     0.524560000000     0.504630000000    -0.00484338 
C118     C      0.306200000000     0.533090000000     0.504940000000    -0.0768655  
C119     C      0.324410000000     0.003720000000     0.487090000000    -0.00595514 
C120     C      0.299450000000     0.966490000000     0.469510000000    -0.00575748 
C121     C      0.255770000000     0.957820000000     0.469580000000    -0.0754846  
C122     C      0.237590000000     0.987290000000     0.487220000000    -0.00637788 
C123     C      0.264560000000     0.767760000000     0.523230000000    -0.00519869 
C124     C      0.260550000000     0.773110000000     0.477120000000    -0.0729726  
C125     C      0.282900000000     0.755260000000     0.447190000000    -0.00465833 
C126     C      0.308270000000     0.731800000000     0.463060000000    -0.00514387 
C127     C      0.311940000000     0.726040000000     0.509130000000    -0.0722538  
C128     C      0.290180000000     0.744500000000     0.539130000000    -0.00511784 
C129     C      0.729640000000     0.417560000000     0.452760000000     0.349475   
C130     C      0.608580000000     0.296500000000     0.458390000000     0.35341    
C131     C      0.675510000000     0.344390000000     0.337770000000     0.347985   
C132     C      0.733180000000     0.297050000000     0.460000000000     0.349687   
C133     C      0.954230000000     0.191110000000     0.529350000000     0.351591   
C134     C      0.832180000000     0.072650000000     0.523550000000     0.351039   
C135     C      0.877170000000     0.132330000000     0.645290000000     0.349068   
C136     C      0.836880000000     0.199410000000     0.525720000000     0.349102   
C137     C      0.832810000000     0.073120000000     0.959430000000     0.35108    
C138     C      0.954930000000     0.191460000000     0.953370000000     0.351551   
C139     C      0.877520000000     0.132570000000     0.837570000000     0.348963   
C140     C      0.837640000000     0.199940000000     0.957140000000     0.349084   
C141     C      0.609330000000     0.296860000000     0.024300000000     0.353663   
C142     C      0.730280000000     0.418040000000     0.030200000000     0.349394   
C143     C      0.675950000000     0.344680000000     0.145040000000     0.347687   
C144     C      0.733970000000     0.297620000000     0.022830000000     0.349803   
C145     C      0.014360000000     0.205310000000     0.007480000000    -0.00642652 
C146     C      0.995050000000     0.217960000000     0.970610000000    -0.0753759  
C147     C      0.513540000000     0.257010000000     0.951510000000    -0.0059053  
C148     C      0.550500000000     0.282900000000     0.969060000000    -0.00509862 
C149     C      0.569690000000     0.270260000000     0.006060000000    -0.0779139  
C150     C      0.551260000000     0.231160000000     0.025000000000    -0.00474165 
C151     C      0.738220000000     0.487770000000     0.995770000000    -0.00629054 
C152     C      0.756410000000     0.458320000000     0.013420000000    -0.0755647  
C153     C      0.800080000000     0.467000000000     0.013510000000    -0.00584039 
C154     C      0.825040000000     0.504220000000     0.995940000000    -0.00583244 
C155     C      0.806830000000     0.033570000000     0.978070000000    -0.076841   
C156     C      0.763170000000     0.025040000000     0.978360000000    -0.00485355 
C157     C      0.809100000000     0.232410000000     0.019780000000    -0.00533663 
C158     C      0.812760000000     0.226620000000     0.973720000000    -0.0721224  
C159     C      0.791010000000     0.245080000000     0.943720000000    -0.00518191 
C160     C      0.765390000000     0.268350000000     0.959610000000    -0.00497117 
C161     C      0.761380000000     0.273720000000     0.005720000000    -0.0732874  
C162     C      0.783740000000     0.255880000000     0.035640000000    -0.00446657 
C163     C      0.842220000000     0.132710000000     0.718270000000    -0.00468226 
C164     C      0.876490000000     0.127550000000     0.694340000000    -0.0758351  
C165     C      0.910260000000     0.120590000000     0.717930000000    -0.0060599  
C166     C      0.910350000000     0.120650000000     0.764840000000    -0.00604791 
C167     C      0.876670000000     0.127670000000     0.788540000000    -0.0758768  
C168     C      0.842310000000     0.132770000000     0.764720000000    -0.00466218 
C169     C      0.661880000000     0.376230000000     0.264890000000    -0.00674644 
C170     C      0.672700000000     0.344580000000     0.288520000000    -0.0747449  
C171     C      0.682530000000     0.312700000000     0.264570000000    -0.00469308 
C172     C      0.682640000000     0.312780000000     0.218180000000    -0.00465914 
C173     C      0.672920000000     0.344730000000     0.194270000000    -0.0747326  
C174     C      0.661990000000     0.376300000000     0.217930000000    -0.00670268 
C175     C      0.549790000000     0.282540000000     0.513660000000    -0.0053115  
C176     C      0.568930000000     0.269930000000     0.476600000000    -0.0777096  
C177     C      0.550450000000     0.230850000000     0.457590000000    -0.00489866 
C178     C      0.513570000000     0.205000000000     0.475120000000    -0.00614664 
C179     C      0.994320000000     0.217630000000     0.512070000000    -0.07552    
C180     C      0.012840000000     0.256650000000     0.531210000000    -0.00593602 
C181     C      0.762540000000     0.024560000000     0.504630000000    -0.00482952 
C182     C      0.806200000000     0.033090000000     0.504940000000    -0.0768841  
C183     C      0.824410000000     0.503720000000     0.487090000000    -0.00599571 
C184     C      0.799450000000     0.466500000000     0.469510000000    -0.00566626 
C185     C      0.755770000000     0.457820000000     0.469580000000    -0.0756067  
C186     C      0.737590000000     0.487290000000     0.487220000000    -0.00632426 
C187     C      0.764560000000     0.267760000000     0.523230000000    -0.00512157 
C188     C      0.760550000000     0.273120000000     0.477120000000    -0.0731043  
C189     C      0.782900000000     0.255260000000     0.447190000000    -0.00459417 
C190     C      0.808270000000     0.231800000000     0.463060000000    -0.00519944 
C191     C      0.811940000000     0.226040000000     0.509130000000    -0.0721682  
C192     C      0.790180000000     0.244500000000     0.539130000000    -0.00517385 
C193     C      0.729640000000     0.917550000000     0.452760000000     0.349419   
C194     C      0.608580000000     0.796500000000     0.458390000000     0.3535     
C195     C      0.675510000000     0.844390000000     0.337770000000     0.347988   
C196     C      0.733170000000     0.797050000000     0.460000000000     0.349672   
C197     C      0.954230000000     0.691110000000     0.529350000000     0.351608   
C198     C      0.832180000000     0.572650000000     0.523550000000     0.351033   
C199     C      0.877170000000     0.632330000000     0.645290000000     0.34907    
C200     C      0.836870000000     0.699410000000     0.525720000000     0.349076   
C201     C      0.832810000000     0.573120000000     0.959430000000     0.351077   
C202     C      0.954930000000     0.691460000000     0.953370000000     0.351661   
C203     C      0.877520000000     0.632570000000     0.837570000000     0.349052   
C204     C      0.837640000000     0.699940000000     0.957140000000     0.349071   
C205     C      0.609330000000     0.796860000000     0.024300000000     0.353664   
C206     C      0.730280000000     0.918040000000     0.030200000000     0.349246   
C207     C      0.675950000000     0.844680000000     0.145040000000     0.347866   
C208     C      0.733970000000     0.797620000000     0.022830000000     0.349812   
C209     C      0.014360000000     0.705310000000     0.007480000000    -0.00639908 
C210     C      0.995050000000     0.717960000000     0.970610000000    -0.0754329  
C211     C      0.513530000000     0.757010000000     0.951510000000    -0.00594578 
C212     C      0.550500000000     0.782900000000     0.969060000000    -0.00507899 
C213     C      0.569690000000     0.770260000000     0.006060000000    -0.0779227  
C214     C      0.551260000000     0.731160000000     0.025000000000    -0.0047289  
C215     C      0.738220000000     0.987770000000     0.995770000000    -0.00630911 
C216     C      0.756410000000     0.958310000000     0.013420000000    -0.0755386  
C217     C      0.800090000000     0.967000000000     0.013510000000    -0.0058857  
C218     C      0.825040000000     0.004220000000     0.995940000000    -0.00581131 
C219     C      0.806830000000     0.533570000000     0.978070000000    -0.0768348  
C220     C      0.763180000000     0.525050000000     0.978360000000    -0.00484733 
C221     C      0.809110000000     0.732410000000     0.019780000000    -0.00536967 
C222     C      0.812760000000     0.726620000000     0.973720000000    -0.0721043  
C223     C      0.791010000000     0.745080000000     0.943720000000    -0.00519203 
C224     C      0.765390000000     0.768350000000     0.959610000000    -0.00496357 
C225     C      0.761380000000     0.773720000000     0.005720000000    -0.073296   
C226     C      0.783740000000     0.755880000000     0.035640000000    -0.00444755 
C227     C      0.842220000000     0.632710000000     0.718270000000    -0.00469023 
C228     C      0.876490000000     0.627550000000     0.694340000000    -0.0758289  
C229     C      0.910260000000     0.620590000000     0.717930000000    -0.00606951 
C230     C      0.910350000000     0.620650000000     0.764840000000    -0.00602607 
C231     C      0.876670000000     0.627670000000     0.788540000000    -0.075917   
C232     C      0.842310000000     0.632770000000     0.764720000000    -0.00464563 
C233     C      0.661880000000     0.876220000000     0.264890000000    -0.00669449 
C234     C      0.672700000000     0.844580000000     0.288520000000    -0.074768   
C235     C      0.682530000000     0.812700000000     0.264570000000    -0.00468485 
C236     C      0.682640000000     0.812780000000     0.218180000000    -0.00465662 
C237     C      0.672920000000     0.844730000000     0.194270000000    -0.0747846  
C238     C      0.661990000000     0.876300000000     0.217930000000    -0.00670949 
C239     C      0.549790000000     0.782540000000     0.513660000000    -0.00530085 
C240     C      0.568930000000     0.769930000000     0.476600000000    -0.077735   
C241     C      0.550450000000     0.730850000000     0.457590000000    -0.00488607 
C242     C      0.513570000000     0.705000000000     0.475120000000    -0.00614927 
C243     C      0.994320000000     0.717630000000     0.512070000000    -0.0755323  
C244     C      0.012840000000     0.756650000000     0.531210000000    -0.0059301  
C245     C      0.762540000000     0.524560000000     0.504630000000    -0.00485655 
C246     C      0.806200000000     0.533090000000     0.504940000000    -0.0768576  
C247     C      0.824410000000     0.003720000000     0.487090000000    -0.00595375 
C248     C      0.799450000000     0.966490000000     0.469510000000    -0.00575718 
C249     C      0.755770000000     0.957820000000     0.469580000000    -0.0754802  
C250     C      0.737590000000     0.987290000000     0.487220000000    -0.00637762 
C251     C      0.764560000000     0.767760000000     0.523230000000    -0.00520149 
C252     C      0.760550000000     0.773110000000     0.477120000000    -0.0729654  
C253     C      0.782900000000     0.755260000000     0.447190000000    -0.00466087 
C254     C      0.808270000000     0.731800000000     0.463060000000    -0.00514157 
C255     C      0.811940000000     0.726040000000     0.509130000000    -0.0722539  
C256     C      0.790180000000     0.744500000000     0.539130000000    -0.00511534 
H1       H      0.500830000000     0.175520000000     0.023050000000     0.0505175  
H2       H      0.999300000000     0.267720000000     0.923160000000     0.0503704  
H3       H      0.064040000000     0.312750000000     0.953620000000     0.0495454  
H4       H      0.065370000000     0.220420000000     0.053450000000     0.0502774  
H5       H      0.204710000000     0.481940000000     0.995140000000     0.0501829  
H6       H      0.315050000000     0.444830000000     0.026780000000     0.0510181  
H7       H      0.358550000000     0.509960000000     0.996300000000     0.0495873  
H8       H      0.248180000000     0.047120000000     0.964890000000     0.0510953  
H9       H      0.325540000000     0.218520000000     0.043620000000     0.0508819  
H10      H      0.293230000000     0.240990000000     0.907990000000     0.0533451  
H11      H      0.248610000000     0.281940000000     0.935840000000     0.0500952  
H12      H      0.281270000000     0.259620000000     0.071400000000     0.0537573  
H13      H      0.315550000000     0.137780000000     0.701110000000     0.0531397  
H14      H      0.437060000000     0.116480000000     0.700230000000     0.0480254  
H15      H      0.437210000000     0.116580000000     0.782440000000     0.0480028  
H16      H      0.315700000000     0.137880000000     0.781960000000     0.0531145  
H17      H      0.154130000000     0.401160000000     0.282600000000     0.0476703  
H18      H      0.190740000000     0.287690000000     0.281670000000     0.0549155  
H19      H      0.190940000000     0.287820000000     0.201060000000     0.0548632  
H20      H      0.154320000000     0.401290000000     0.200250000000     0.0476177  
H21      H      0.063370000000     0.312370000000     0.529140000000     0.0495851  
H22      H      0.064520000000     0.220140000000     0.429100000000     0.0503141  
H23      H      0.999990000000     0.175230000000     0.459520000000     0.0505766  
H24      H      0.498650000000     0.267350000000     0.559620000000     0.0502557  
H25      H      0.247550000000     0.046640000000     0.518090000000     0.0510812  
H26      H      0.357910000000     0.509460000000     0.486730000000     0.0496069  
H27      H      0.314410000000     0.444310000000     0.456250000000     0.051004   
H28      H      0.204080000000     0.481470000000     0.487830000000     0.0501696  
H29      H      0.247780000000     0.281360000000     0.546990000000     0.0501362  
H30      H      0.280440000000     0.258990000000     0.411440000000     0.0538022  
H31      H      0.324720000000     0.217910000000     0.439230000000     0.0508789  
H32      H      0.292410000000     0.240430000000     0.574850000000     0.0533398  
H33      H      0.500830000000     0.675520000000     0.023050000000     0.0505242  
H34      H      0.999290000000     0.767720000000     0.923160000000     0.0503557  
H35      H      0.064040000000     0.812750000000     0.953620000000     0.0495534  
H36      H      0.065370000000     0.720420000000     0.053450000000     0.0502841  
H37      H      0.204710000000     0.981940000000     0.995140000000     0.0501808  
H38      H      0.315050000000     0.944830000000     0.026780000000     0.0510259  
H39      H      0.358550000000     0.009960000000     0.996300000000     0.0495814  
H40      H      0.248180000000     0.547110000000     0.964890000000     0.0511164  
H41      H      0.325540000000     0.718520000000     0.043620000000     0.0508792  
H42      H      0.293230000000     0.740990000000     0.907990000000     0.0533422  
H43      H      0.248610000000     0.781940000000     0.935840000000     0.0500981  
H44      H      0.281270000000     0.759620000000     0.071400000000     0.0537592  
H45      H      0.315550000000     0.637780000000     0.701110000000     0.053128   
H46      H      0.437060000000     0.616480000000     0.700230000000     0.0480139  
H47      H      0.437210000000     0.616580000000     0.782440000000     0.0480317  
H48      H      0.315700000000     0.637880000000     0.781960000000     0.05314    
H49      H      0.154130000000     0.901160000000     0.282600000000     0.0476439  
H50      H      0.190740000000     0.787700000000     0.281670000000     0.0549234  
H51      H      0.190940000000     0.787820000000     0.201060000000     0.0548788  
H52      H      0.154320000000     0.901290000000     0.200250000000     0.0476328  
H53      H      0.063370000000     0.812370000000     0.529140000000     0.0495843  
H54      H      0.064520000000     0.720140000000     0.429100000000     0.0503163  
H55      H      0.999990000000     0.675230000000     0.459520000000     0.0505738  
H56      H      0.498650000000     0.767350000000     0.559620000000     0.0502559  
H57      H      0.247550000000     0.546640000000     0.518090000000     0.0510848  
H58      H      0.357910000000     0.009460000000     0.486730000000     0.0495952  
H59      H      0.314410000000     0.944310000000     0.456250000000     0.0510283  
H60      H      0.204070000000     0.981460000000     0.487830000000     0.05018    
H61      H      0.247780000000     0.781360000000     0.546990000000     0.0501447  
H62      H      0.280440000000     0.758990000000     0.411440000000     0.0538112  
H63      H      0.324720000000     0.717910000000     0.439230000000     0.0508688  
H64      H      0.292410000000     0.740430000000     0.574850000000     0.0533268  
H65      H      0.000830000000     0.175520000000     0.023050000000     0.0505258  
H66      H      0.499290000000     0.267720000000     0.923160000000     0.050296   
H67      H      0.564040000000     0.312750000000     0.953620000000     0.0495769  
H68      H      0.565370000000     0.220420000000     0.053450000000     0.0502964  
H69      H      0.704710000000     0.481940000000     0.995140000000     0.0501924  
H70      H      0.815050000000     0.444830000000     0.026780000000     0.0510221  
H71      H      0.858550000000     0.509960000000     0.996300000000     0.0495887  
H72      H      0.748180000000     0.047110000000     0.964890000000     0.051103   
H73      H      0.825540000000     0.218520000000     0.043620000000     0.0508854  
H74      H      0.793230000000     0.240990000000     0.907990000000     0.0533475  
H75      H      0.748610000000     0.281940000000     0.935840000000     0.0500975  
H76      H      0.781270000000     0.259620000000     0.071400000000     0.0537594  
H77      H      0.815550000000     0.137780000000     0.701110000000     0.0531355  
H78      H      0.937060000000     0.116480000000     0.700240000000     0.0480231  
H79      H      0.937210000000     0.116580000000     0.782440000000     0.0480217  
H80      H      0.815700000000     0.137880000000     0.781960000000     0.0531316  
H81      H      0.654130000000     0.401160000000     0.282600000000     0.0476664  
H82      H      0.690740000000     0.287690000000     0.281670000000     0.0549103  
H83      H      0.690940000000     0.287820000000     0.201060000000     0.0548831  
H84      H      0.654320000000     0.401290000000     0.200250000000     0.0476373  
H85      H      0.563370000000     0.312370000000     0.529140000000     0.0496083  
H86      H      0.564520000000     0.220140000000     0.429100000000     0.0503397  
H87      H      0.499990000000     0.175230000000     0.459520000000     0.0505154  
H88      H      0.998650000000     0.267350000000     0.559620000000     0.0503166  
H89      H      0.747550000000     0.046640000000     0.518090000000     0.0510838  
H90      H      0.857910000000     0.509460000000     0.486730000000     0.0496108  
H91      H      0.814410000000     0.444310000000     0.456250000000     0.0510031  
H92      H      0.704070000000     0.481460000000     0.487830000000     0.0501648  
H93      H      0.747780000000     0.281360000000     0.546990000000     0.0501301  
H94      H      0.780440000000     0.258990000000     0.411440000000     0.0537954  
H95      H      0.824720000000     0.217910000000     0.439230000000     0.0508847  
H96      H      0.792410000000     0.240430000000     0.574850000000     0.0533457  
H97      H      0.000830000000     0.675520000000     0.023050000000     0.0505191  
H98      H      0.499290000000     0.767720000000     0.923160000000     0.0503072  
H99      H      0.564040000000     0.812750000000     0.953620000000     0.0495736  
H100     H      0.565370000000     0.720420000000     0.053450000000     0.0502949  
H101     H      0.704710000000     0.981940000000     0.995140000000     0.0501946  
H102     H      0.815050000000     0.944830000000     0.026780000000     0.0510405  
H103     H      0.858550000000     0.009960000000     0.996300000000     0.0495806  
H104     H      0.748180000000     0.547110000000     0.964890000000     0.0511007  
H105     H      0.825540000000     0.718520000000     0.043620000000     0.0508952  
H106     H      0.793230000000     0.740990000000     0.907990000000     0.0533506  
H107     H      0.748610000000     0.781940000000     0.935840000000     0.0500961  
H108     H      0.781280000000     0.759620000000     0.071400000000     0.0537496  
H109     H      0.815550000000     0.637780000000     0.701110000000     0.0531376  
H110     H      0.937060000000     0.616480000000     0.700240000000     0.0480262  
H111     H      0.937210000000     0.616580000000     0.782440000000     0.0480159  
H112     H      0.815700000000     0.637880000000     0.781960000000     0.0531248  
H113     H      0.654130000000     0.901160000000     0.282600000000     0.0476474  
H114     H      0.690740000000     0.787690000000     0.281670000000     0.0549079  
H115     H      0.690930000000     0.787820000000     0.201060000000     0.054885   
H116     H      0.654320000000     0.901290000000     0.200250000000     0.0476362  
H117     H      0.563380000000     0.812370000000     0.529140000000     0.0496099  
H118     H      0.564520000000     0.720140000000     0.429100000000     0.0503387  
H119     H      0.499990000000     0.675230000000     0.459520000000     0.0505135  
H120     H      0.998650000000     0.767350000000     0.559620000000     0.0503151  
H121     H      0.747550000000     0.546640000000     0.518090000000     0.0510907  
H122     H      0.857910000000     0.009460000000     0.486730000000     0.0495976  
H123     H      0.814410000000     0.944310000000     0.456250000000     0.051032   
H124     H      0.704070000000     0.981460000000     0.487830000000     0.0501841  
H125     H      0.747780000000     0.781360000000     0.546990000000     0.0501476  
H126     H      0.780440000000     0.758990000000     0.411440000000     0.0538127  
H127     H      0.824720000000     0.717910000000     0.439230000000     0.0508704  
H128     H      0.792410000000     0.740430000000     0.574850000000     0.0533279  
In1      In     0.184110000000     0.341060000000     0.427280000000     2.40261    
In2      In     0.377500000000     0.146680000000     0.556460000000     2.4069     
In3      In     0.378120000000     0.147080000000     0.926400000000     2.40701    
In4      In     0.184780000000     0.341510000000     0.055540000000     2.40241    
In5      In     0.184110000000     0.841060000000     0.427280000000     2.40244    
In6      In     0.377500000000     0.646680000000     0.556460000000     2.40704    
In7      In     0.378120000000     0.647080000000     0.926400000000     2.40688    
In8      In     0.184780000000     0.841510000000     0.055540000000     2.40253    
In9      In     0.684110000000     0.341060000000     0.427280000000     2.40274    
In10     In     0.877500000000     0.146680000000     0.556460000000     2.4069     
In11     In     0.878120000000     0.147080000000     0.926400000000     2.407      
In12     In     0.684780000000     0.341510000000     0.055540000000     2.40232    
In13     In     0.684110000000     0.841060000000     0.427280000000     2.40236    
In14     In     0.877500000000     0.646680000000     0.556460000000     2.40704    
In15     In     0.878120000000     0.647080000000     0.926400000000     2.40697    
In16     In     0.684780000000     0.841510000000     0.055540000000     2.40247    
O1       O      0.209810000000     0.311120000000     0.484860000000    -0.486254   
O2       O      0.231520000000     0.305140000000     0.419060000000    -0.468161   
O3       O      0.127550000000     0.331430000000     0.474370000000    -0.479076   
O4       O      0.190310000000     0.406440000000     0.454820000000    -0.479043   
O5       O      0.189720000000     0.318360000000     0.357690000000    -0.482392   
O6       O      0.245350000000     0.390700000000     0.436870000000    -0.491969   
O7       O      0.127070000000     0.285050000000     0.426380000000    -0.494929   
O8       O      0.165020000000     0.369800000000     0.363150000000    -0.482965   
O9       O      0.352400000000     0.177920000000     0.500010000000    -0.486881   
O10      O      0.342560000000     0.194820000000     0.566830000000    -0.468847   
O11      O      0.371410000000     0.082010000000     0.526410000000    -0.48001    
O12      O      0.435430000000     0.156630000000     0.512180000000    -0.482548   
O13      O      0.350520000000     0.145890000000     0.625500000000    -0.485822   
O14      O      0.435010000000     0.202270000000     0.561030000000    -0.491148   
O15      O      0.316460000000     0.100160000000     0.537550000000    -0.491258   
O16      O      0.404770000000     0.125350000000     0.620150000000    -0.485212   
O17      O      0.353130000000     0.178420000000     0.982850000000    -0.486805   
O18      O      0.343310000000     0.195310000000     0.916030000000    -0.468997   
O19      O      0.436120000000     0.157000000000     0.970570000000    -0.482612   
O20      O      0.372030000000     0.082430000000     0.956470000000    -0.480048   
O21      O      0.350920000000     0.146150000000     0.857440000000    -0.485797   
O22      O      0.317090000000     0.100640000000     0.945490000000    -0.491198   
O23      O      0.435680000000     0.202610000000     0.921720000000    -0.491155   
O24      O      0.405200000000     0.125650000000     0.862630000000    -0.48522    
O25      O      0.210570000000     0.311640000000     0.997970000000    -0.486228   
O26      O      0.232290000000     0.305700000000     0.063770000000    -0.468093   
O27      O      0.190960000000     0.406880000000     0.028000000000    -0.479087   
O28      O      0.128220000000     0.331850000000     0.008440000000    -0.479286   
O29      O      0.190310000000     0.318750000000     0.125120000000    -0.482309   
O30      O      0.127860000000     0.285370000000     0.056240000000    -0.494895   
O31      O      0.246000000000     0.391230000000     0.046170000000    -0.49197    
O32      O      0.165460000000     0.370090000000     0.119660000000    -0.483024   
O33      O      0.209810000000     0.811120000000     0.484860000000    -0.486221   
O34      O      0.231520000000     0.805140000000     0.419060000000    -0.468141   
O35      O      0.127550000000     0.831430000000     0.474370000000    -0.479077   
O36      O      0.190310000000     0.906450000000     0.454820000000    -0.47892    
O37      O      0.189720000000     0.818360000000     0.357690000000    -0.482375   
O38      O      0.245350000000     0.890700000000     0.436870000000    -0.492032   
O39      O      0.127070000000     0.785050000000     0.426380000000    -0.494907   
O40      O      0.165020000000     0.869800000000     0.363150000000    -0.482958   
O41      O      0.352400000000     0.677920000000     0.500010000000    -0.486829   
O42      O      0.342560000000     0.694820000000     0.566830000000    -0.468835   
O43      O      0.371410000000     0.582010000000     0.526410000000    -0.480012   
O44      O      0.435420000000     0.656630000000     0.512180000000    -0.482635   
O45      O      0.350520000000     0.645890000000     0.625500000000    -0.485842   
O46      O      0.435010000000     0.702270000000     0.561030000000    -0.491148   
O47      O      0.316460000000     0.600160000000     0.537550000000    -0.491272   
O48      O      0.404770000000     0.625350000000     0.620150000000    -0.485228   
O49      O      0.353120000000     0.678420000000     0.982850000000    -0.486795   
O50      O      0.343310000000     0.695310000000     0.916030000000    -0.469004   
O51      O      0.436120000000     0.657000000000     0.970570000000    -0.48257    
O52      O      0.372030000000     0.582430000000     0.956470000000    -0.480043   
O53      O      0.350920000000     0.646160000000     0.857440000000    -0.485609   
O54      O      0.317090000000     0.600640000000     0.945490000000    -0.491188   
O55      O      0.435670000000     0.702610000000     0.921720000000    -0.491139   
O56      O      0.405210000000     0.625650000000     0.862630000000    -0.484982   
O57      O      0.210570000000     0.811640000000     0.997970000000    -0.486233   
O58      O      0.232290000000     0.805700000000     0.063770000000    -0.468115   
O59      O      0.190960000000     0.906870000000     0.028000000000    -0.479234   
O60      O      0.128220000000     0.831850000000     0.008440000000    -0.479278   
O61      O      0.190300000000     0.818740000000     0.125120000000    -0.482255   
O62      O      0.127860000000     0.785370000000     0.056240000000    -0.494893   
O63      O      0.246000000000     0.891230000000     0.046170000000    -0.492003   
O64      O      0.165460000000     0.870090000000     0.119660000000    -0.483011   
O65      O      0.709810000000     0.311120000000     0.484860000000    -0.486185   
O66      O      0.731520000000     0.305140000000     0.419060000000    -0.468151   
O67      O      0.627560000000     0.331430000000     0.474370000000    -0.479149   
O68      O      0.690310000000     0.406440000000     0.454820000000    -0.479048   
O69      O      0.689720000000     0.318360000000     0.357690000000    -0.482407   
O70      O      0.745350000000     0.390700000000     0.436870000000    -0.491985   
O71      O      0.627070000000     0.285050000000     0.426380000000    -0.49492    
O72      O      0.665020000000     0.369800000000     0.363150000000    -0.482978   
O73      O      0.852400000000     0.177920000000     0.500010000000    -0.486878   
O74      O      0.842560000000     0.194820000000     0.566830000000    -0.468845   
O75      O      0.871410000000     0.082010000000     0.526410000000    -0.480008   
O76      O      0.935430000000     0.156630000000     0.512180000000    -0.482531   
O77      O      0.850520000000     0.145890000000     0.625500000000    -0.485822   
O78      O      0.935010000000     0.202270000000     0.561030000000    -0.49113    
O79      O      0.816460000000     0.100160000000     0.537550000000    -0.491257   
O80      O      0.904770000000     0.125350000000     0.620150000000    -0.485209   
O81      O      0.853130000000     0.178420000000     0.982850000000    -0.486793   
O82      O      0.843310000000     0.195310000000     0.916030000000    -0.468987   
O83      O      0.936120000000     0.157000000000     0.970570000000    -0.482558   
O84      O      0.872030000000     0.082430000000     0.956470000000    -0.480046   
O85      O      0.850920000000     0.146150000000     0.857440000000    -0.485733   
O86      O      0.817090000000     0.100640000000     0.945490000000    -0.491193   
O87      O      0.935670000000     0.202610000000     0.921720000000    -0.491137   
O88      O      0.905210000000     0.125650000000     0.862630000000    -0.485034   
O89      O      0.710570000000     0.311640000000     0.997970000000    -0.486216   
O90      O      0.732290000000     0.305700000000     0.063770000000    -0.468088   
O91      O      0.690960000000     0.406880000000     0.028000000000    -0.479076   
O92      O      0.628220000000     0.331850000000     0.008440000000    -0.479267   
O93      O      0.690310000000     0.318740000000     0.125120000000    -0.482113   
O94      O      0.627860000000     0.285370000000     0.056240000000    -0.494877   
O95      O      0.746000000000     0.391230000000     0.046170000000    -0.491962   
O96      O      0.665460000000     0.370090000000     0.119660000000    -0.482951   
O97      O      0.709810000000     0.811120000000     0.484860000000    -0.486231   
O98      O      0.731520000000     0.805140000000     0.419060000000    -0.468127   
O99      O      0.627550000000     0.831430000000     0.474370000000    -0.479097   
O100     O      0.690310000000     0.906450000000     0.454820000000    -0.478905   
O101     O      0.689720000000     0.818360000000     0.357690000000    -0.482376   
O102     O      0.745350000000     0.890700000000     0.436870000000    -0.492013   
O103     O      0.627060000000     0.785050000000     0.426380000000    -0.4949     
O104     O      0.665020000000     0.869800000000     0.363150000000    -0.482947   
O105     O      0.852400000000     0.677920000000     0.500010000000    -0.486827   
O106     O      0.842560000000     0.694820000000     0.566830000000    -0.468835   
O107     O      0.871410000000     0.582010000000     0.526410000000    -0.480009   
O108     O      0.935420000000     0.656630000000     0.512180000000    -0.482618   
O109     O      0.850520000000     0.645890000000     0.625500000000    -0.485838   
O110     O      0.935010000000     0.702270000000     0.561030000000    -0.491131   
O111     O      0.816460000000     0.600160000000     0.537550000000    -0.491271   
O112     O      0.904770000000     0.625350000000     0.620150000000    -0.485221   
O113     O      0.853130000000     0.678420000000     0.982850000000    -0.486794   
O114     O      0.843310000000     0.695310000000     0.916030000000    -0.468982   
O115     O      0.936120000000     0.657000000000     0.970570000000    -0.482592   
O116     O      0.872030000000     0.582430000000     0.956470000000    -0.480038   
O117     O      0.850920000000     0.646160000000     0.857440000000    -0.485682   
O118     O      0.817090000000     0.600640000000     0.945490000000    -0.491192   
O119     O      0.935680000000     0.702610000000     0.921720000000    -0.491138   
O120     O      0.905200000000     0.625650000000     0.862630000000    -0.485171   
O121     O      0.710570000000     0.811640000000     0.997970000000    -0.48623    
O122     O      0.732290000000     0.805700000000     0.063770000000    -0.46811    
O123     O      0.690950000000     0.906870000000     0.028000000000    -0.479059   
O124     O      0.628220000000     0.831850000000     0.008440000000    -0.479265   
O125     O      0.690300000000     0.818740000000     0.125120000000    -0.482247   
O126     O      0.627860000000     0.785370000000     0.056240000000    -0.49488    
O127     O      0.746000000000     0.891230000000     0.046170000000    -0.491929   
O128     O      0.665460000000     0.870090000000     0.119660000000    -0.483      


