data_structure

_audit_creation_method RASPA-1.0
_audit_creation_date 2023-5-22
_audit_author_name 'Poobodin Mano'

_cell_length_a    42.8155
_cell_length_b    42.8708
_cell_length_c    37.4796
_cell_angle_alpha 89.7557
_cell_angle_beta  90.2341
_cell_angle_gamma 120.176
_cell_volume      59471.7

_symmetry_cell_setting          triclinic
_symmetry_space_group_name_Hall 'P 1'
_symmetry_space_group_name_H-M  'P 1'
_symmetry_Int_Tables_number     1

_symmetry_equiv_pos_as_xyz 'x,y,z'

loop_
_atom_site_label
_atom_site_type_symbol
_atom_site_fract_x
_atom_site_fract_y
_atom_site_fract_z
_atom_site_charge
C1       C      0.654560000000     0.915600000000     0.500190000000     0.3322     
C2       C      0.718100000000     0.846450000000     0.542740000000     0.334051   
C3       C      0.660410000000     0.841990000000     0.457800000000     0.332487   
C4       C      0.752570000000     0.951370000000     0.530560000000     0.334546   
C5       C      0.586930000000     0.998550000000     0.468680000000     0.332187   
C6       C      0.531040000000     0.071620000000     0.418310000000     0.336046   
C7       C      0.516130000000     0.012530000000     0.505360000000     0.334566   
C8       C      0.633920000000     0.099150000000     0.440290000000     0.333721   
C9       C      0.020750000000     0.284410000000     0.032960000000     0.351349   
C10      C      0.078070000000     0.213290000000     0.037290000000     0.355762   
C11      C      0.969090000000     0.177030000000     0.999340000000     0.350959   
C12      C      0.075020000000     0.271360000000     0.947680000000     0.344852   
C13      C      0.935530000000     0.348130000000     0.999010000000     0.333938   
C14      C      0.870660000000     0.401230000000     0.926910000000     0.334331   
C15      C      0.840440000000     0.300890000000     0.958430000000     0.331909   
C16      C      0.919290000000     0.421640000000     0.022670000000     0.334289   
C17      C      0.274210000000     0.029030000000     0.622600000000     0.342118   
C18      C      0.205100000000     0.079250000000     0.560150000000     0.341612   
C19      C      0.171650000000     0.977410000000     0.601110000000     0.338702   
C20      C      0.249470000000     0.096500000000     0.661390000000     0.344643   
C21      C      0.344750000000     0.948850000000     0.651840000000     0.340914   
C22      C      0.394340000000     0.878730000000     0.712640000000     0.341301   
C23      C      0.292020000000     0.844160000000     0.670730000000     0.338971   
C24      C      0.413070000000     0.925680000000     0.613860000000     0.344517   
C25      C      0.320130000000     0.260060000000     0.823360000000     0.333973   
C26      C      0.387430000000     0.194220000000     0.862230000000     0.335213   
C27      C      0.332030000000     0.190800000000     0.777170000000     0.334507   
C28      C      0.421150000000     0.299010000000     0.853220000000     0.335789   
C29      C      0.240430000000     0.331820000000     0.795460000000     0.341803   
C30      C      0.188670000000     0.398610000000     0.731510000000     0.341057   
C31      C      0.169680000000     0.354790000000     0.832540000000     0.343592   
C32      C      0.289860000000     0.435320000000     0.774050000000     0.338942   
C33      C      0.684530000000     0.627040000000     0.321660000000     0.334967   
C34      C      0.748360000000     0.560610000000     0.367440000000     0.33526    
C35      C      0.644930000000     0.529460000000     0.353170000000     0.335486   
C36      C      0.754870000000     0.613030000000     0.276900000000     0.335627   
C37      C      0.598060000000     0.691720000000     0.297170000000     0.342229   
C38      C      0.528300000000     0.742380000000     0.239690000000     0.342414   
C39      C      0.492670000000     0.637650000000     0.277080000000     0.339897   
C40      C      0.571290000000     0.753950000000     0.341500000000     0.345874   
C41      C      0.989720000000     0.599050000000     0.162820000000     0.344289   
C42      C      0.057030000000     0.544610000000     0.224920000000     0.33802    
C43      C      0.005920000000     0.526140000000     0.129900000000     0.325926   
C44      C      0.091540000000     0.646580000000     0.187470000000     0.335603   
C45      C      0.914350000000     0.672570000000     0.123960000000     0.338821   
C46      C      0.860530000000     0.738550000000     0.059190000000     0.339559   
C47      C      0.846070000000     0.695040000000     0.159180000000     0.341537   
C48      C      0.963840000000     0.772470000000     0.094700000000     0.342036   
C49      C      0.553910000000     0.948170000000     0.148380000000     0.339716   
C50      C      0.433880000000     0.883940000000     0.212200000000     0.339897   
C51      C      0.464030000000     0.928130000000     0.111360000000     0.342468   
C52      C      0.498710000000     0.846130000000     0.175940000000     0.337612   
C53      C      0.704000000000     0.025610000000     0.112850000000     0.337172   
C54      C      0.829010000000     0.081150000000     0.055830000000     0.339331   
C55      C      0.791470000000     0.095590000000     0.152060000000     0.340531   
C56      C      0.758190000000     0.978640000000     0.089800000000     0.336648   
C57      C      0.886280000000     0.253450000000     0.311640000000     0.342431   
C58      C      0.765480000000     0.198540000000     0.370530000000     0.341986   
C59      C      0.832780000000     0.302520000000     0.331180000000     0.33926    
C60      C      0.796840000000     0.185870000000     0.268700000000     0.344704   
C61      C      0.038290000000     0.334900000000     0.288090000000     0.337083   
C62      C      0.158480000000     0.406110000000     0.230250000000     0.342932   
C63      C      0.091850000000     0.440770000000     0.275810000000     0.339912   
C64      C      0.128740000000     0.356830000000     0.329120000000     0.345897   
C65      C      0.221780000000     0.280140000000     0.477380000000     0.335736   
C66      C      0.094040000000     0.205190000000     0.526360000000     0.338785   
C67      C      0.137090000000     0.264900000000     0.437110000000     0.338625   
C68      C      0.168550000000     0.177360000000     0.496710000000     0.337129   
C69      C      0.373740000000     0.361310000000     0.453440000000     0.33403    
C70      C      0.506270000000     0.430200000000     0.413950000000     0.335501   
C71      C      0.453680000000     0.433480000000     0.498790000000     0.334399   
C72      C      0.437310000000     0.324980000000     0.426210000000     0.336252   
C73      C      0.546290000000     0.587600000000     0.657560000000     0.343199   
C74      C      0.425440000000     0.538450000000     0.714070000000     0.342943   
C75      C      0.494890000000     0.641920000000     0.673360000000     0.33959    
C76      C      0.456060000000     0.524060000000     0.613390000000     0.346353   
C77      C      0.698000000000     0.650850000000     0.634270000000     0.331745   
C78      C      0.831090000000     0.715560000000     0.593230000000     0.333559   
C79      C      0.759370000000     0.748400000000     0.603440000000     0.334613   
C80      C      0.779410000000     0.658210000000     0.677700000000     0.333264   
C81      C      0.883210000000     0.597750000000     0.827150000000     0.337899   
C82      C      0.763780000000     0.531940000000     0.891640000000     0.339522   
C83      C      0.791800000000     0.574120000000     0.792020000000     0.341241   
C84      C      0.832570000000     0.496830000000     0.858430000000     0.336726   
C85      C      0.032200000000     0.680490000000     0.788380000000     0.330545   
C86      C      0.154590000000     0.740440000000     0.726590000000     0.337558   
C87      C      0.120920000000     0.754390000000     0.823330000000     0.338985   
C88      C      0.087540000000     0.636790000000     0.759960000000     0.334871   
C89      C      0.374310000000     0.995360000000     0.947600000000     0.337267   
C90      C      0.503110000000     0.064350000000     0.901730000000     0.337538   
C91      C      0.430260000000     0.096070000000     0.919320000000     0.337957   
C92      C      0.459040000000     0.013210000000     0.993840000000     0.337478   
C93      C      0.223270000000     0.919210000000     0.974630000000     0.336637   
C94      C      0.101150000000     0.868010000000     0.033230000000     0.338093   
C95      C      0.173940000000     0.970040000000     0.001880000000     0.336179   
C96      C      0.133810000000     0.851890000000     0.936000000000     0.340209   
C97      C      0.583530000000     0.562470000000     0.963920000000     0.338179   
C98      C      0.523970000000     0.433440000000     0.919110000000     0.340862   
C99      C      0.629240000000     0.503770000000     0.949400000000     0.339101   
C100     C      0.512880000000     0.480010000000     0.008200000000     0.341295   
C101     C      0.655360000000     0.715270000000     0.983020000000     0.339675   
C102     C      0.722830000000     0.840560000000     0.034980000000     0.340183   
C103     C      0.757970000000     0.771860000000     0.000310000000     0.337073   
C104     C      0.670700000000     0.801790000000     0.939550000000     0.342177   
C105     C      0.688990000000     0.049090000000     0.823900000000     0.340632   
C106     C      0.745020000000     0.168390000000     0.888320000000     0.339742   
C107     C      0.761090000000     0.140290000000     0.787690000000     0.342607   
C108     C      0.643070000000     0.103410000000     0.848850000000     0.336789   
C109     C      0.602570000000     0.899320000000     0.790810000000     0.339998   
C110     C      0.531420000000     0.778770000000     0.730790000000     0.340411   
C111     C      0.580660000000     0.809340000000     0.828760000000     0.342915   
C112     C      0.497750000000     0.846460000000     0.771130000000     0.338472   
C113     C      0.918000000000     0.225170000000     0.622360000000     0.334377   
C114     C      0.853400000000     0.091810000000     0.586600000000     0.33592    
C115     C      0.958690000000     0.164880000000     0.594470000000     0.335052   
C116     C      0.851260000000     0.145210000000     0.671350000000     0.334472   
C117     C      0.987380000000     0.377210000000     0.644610000000     0.347247   
C118     C      0.053640000000     0.501060000000     0.699560000000     0.340249   
C119     C      0.089400000000     0.432570000000     0.665970000000     0.337499   
C120     C      0.006030000000     0.464760000000     0.601060000000     0.328406   
C121     C      0.942300000000     0.561940000000     0.450930000000     0.333491   
C122     C      0.872450000000     0.440760000000     0.387880000000     0.337782   
C123     C      0.920780000000     0.472270000000     0.485240000000     0.338811   
C124     C      0.843270000000     0.513600000000     0.421160000000     0.334767   
C125     C      0.015390000000     0.709650000000     0.492890000000     0.337961   
C126     C      0.073650000000     0.836140000000     0.548900000000     0.332588   
C127     C      0.086380000000     0.797480000000     0.458580000000     0.332826   
C128     C      0.971260000000     0.760880000000     0.532490000000     0.332434   
C129     C      0.333310000000     0.055290000000     0.328770000000     0.336184   
C130     C      0.402290000000     0.187160000000     0.367600000000     0.337506   
C131     C      0.435380000000     0.114580000000     0.355310000000     0.337902   
C132     C      0.347820000000     0.136840000000     0.280540000000     0.336542   
C133     C      0.253010000000     0.903710000000     0.304270000000     0.339724   
C134     C      0.196530000000     0.782110000000     0.245540000000     0.339866   
C135     C      0.301050000000     0.850340000000     0.279190000000     0.337364   
C136     C      0.184020000000     0.813820000000     0.344580000000     0.342495   
C137     C      0.276280000000     0.230740000000     0.124110000000     0.337263   
C138     C      0.214030000000     0.104900000000     0.068580000000     0.33724    
C139     C      0.262600000000     0.142930000000     0.163660000000     0.337562   
C140     C      0.178450000000     0.172270000000     0.092030000000     0.336554   
C141     C      0.343000000000     0.381720000000     0.154220000000     0.340881   
C142     C      0.394020000000     0.502330000000     0.214130000000     0.340847   
C143     C      0.413560000000     0.472470000000     0.116230000000     0.343337   
C144     C      0.293050000000     0.436550000000     0.171400000000     0.338275   
C145     C      0.302600000000     0.281540000000     0.167390000000    -0.00516587 
C146     C      0.298600000000     0.269510000000     0.131900000000    -0.0668752  
C147     C      0.312890000000     0.294900000000     0.104210000000    -0.00691803 
C148     C      0.328730000000     0.331670000000     0.111750000000    -0.0048949  
C149     C      0.331070000000     0.343580000000     0.147120000000    -0.0681624  
C150     C      0.319010000000     0.318320000000     0.174980000000    -0.00591716 
C151     C      0.339570000000     0.144880000000     0.215600000000    -0.00756484 
C152     C      0.326190000000     0.138600000000     0.250570000000    -0.0657237  
C153     C      0.291000000000     0.132200000000     0.256590000000    -0.00716413 
C154     C      0.269770000000     0.132450000000     0.228260000000    -0.00673554 
C155     C      0.283320000000     0.139140000000     0.193340000000    -0.0673564  
C156     C      0.318370000000     0.145180000000     0.187290000000    -0.00624762 
C157     C      0.298480000000     0.003580000000     0.288280000000    -0.00398595 
C158     C      0.307120000000     0.016920000000     0.323290000000    -0.0663893  
C159     C      0.293650000000     0.992900000000     0.352120000000    -0.00620711 
C160     C      0.274220000000     0.955750000000     0.345870000000    -0.00501395 
C161     C      0.267460000000     0.942360000000     0.310760000000    -0.067021   
C162     C      0.278470000000     0.966560000000     0.282050000000    -0.00592939 
C163     C      0.105070000000     0.809140000000     0.394460000000    -0.00891196 
C164     C      0.111980000000     0.802920000000     0.429590000000    -0.0640083  
C165     C      0.142400000000     0.799360000000     0.436520000000    -0.00824235 
C166     C      0.165490000000     0.802060000000     0.408880000000    -0.00538752 
C167     C      0.158540000000     0.808240000000     0.373740000000    -0.0699705  
C168     C      0.128070000000     0.811720000000     0.366840000000    -0.00500841 
C169     C      0.974310000000     0.608820000000     0.497310000000    -0.0119424  
C170     C      0.967190000000     0.599610000000     0.461010000000    -0.058107   
C171     C      0.980190000000     0.626990000000     0.435220000000    -0.0164695  
C172     C      0.997510000000     0.663060000000     0.445780000000     0.0178061  
C173     C      0.002680000000     0.672210000000     0.482190000000    -0.0860109  
C174     C      0.992290000000     0.644940000000     0.507830000000     0.00825949 
C175     C      0.950880000000     0.464130000000     0.578060000000    -0.00768597 
C176     C      0.984870000000     0.467720000000     0.571360000000    -0.0621252  
C177     C      0.996800000000     0.471180000000     0.536000000000    -1.52054e-05
C178     C      0.975260000000     0.471330000000     0.507940000000    -0.0082041  
C179     C      0.941380000000     0.467980000000     0.514670000000    -0.0660318  
C180     C      0.929350000000     0.464250000000     0.550010000000    -0.00610278 
C181     C      0.938050000000     0.286950000000     0.598690000000    -0.00731107 
C182     C      0.930180000000     0.263530000000     0.627730000000    -0.0642884  
C183     C      0.936980000000     0.277480000000     0.662590000000    -0.00494474 
C184     C      0.953290000000     0.314540000000     0.668310000000    -0.00430707 
C185     C      0.963710000000     0.338220000000     0.639200000000    -0.0688923  
C186     C      0.955100000000     0.324160000000     0.604380000000    -0.00270686 
C187     C      0.777840000000     0.149690000000     0.723050000000    -0.00485625 
C188     C      0.785880000000     0.144880000000     0.758240000000    -0.0697221  
C189     C      0.815890000000     0.140550000000     0.764740000000    -0.00483377 
C190     C      0.837010000000     0.140320000000     0.736540000000    -0.00841133 
C191     C      0.828550000000     0.144420000000     0.701290000000    -0.0642121  
C192     C      0.798980000000     0.149480000000     0.694840000000    -0.00807076 
C193     C      0.659870000000     0.984660000000     0.842760000000    -0.00601595 
C194     C      0.672820000000     0.010540000000     0.815460000000    -0.0679762  
C195     C      0.666180000000     0.999180000000     0.779660000000    -0.00489477 
C196     C      0.645020000000     0.962610000000     0.771350000000    -0.00635766 
C197     C      0.629790000000     0.936990000000     0.798740000000    -0.0676878  
C198     C      0.638290000000     0.948160000000     0.834460000000    -0.00534825 
C199     C      0.658230000000     0.807280000000     0.875190000000    -0.00651195 
C200     C      0.648220000000     0.804610000000     0.911140000000    -0.0688875  
C201     C      0.614960000000     0.801900000000     0.919740000000    -0.00606943 
C202     C      0.592280000000     0.802150000000     0.892950000000    -0.00619167 
C203     C      0.602400000000     0.805070000000     0.857010000000    -0.0691557  
C204     C      0.635530000000     0.807480000000     0.848400000000    -0.00580991 
C205     C      0.602810000000     0.615810000000     0.003020000000    -0.00509891 
C206     C      0.596550000000     0.601140000000     0.968460000000    -0.0668896  
C207     C      0.605790000000     0.624120000000     0.938850000000    -0.00662318 
C208     C      0.623410000000     0.661440000000     0.943750000000    -0.00515327 
C209     C      0.631490000000     0.676190000000     0.978310000000    -0.0675856  
C210     C      0.619910000000     0.653060000000     0.007910000000    -0.00592991 
C211     C      0.457110000000     0.480840000000     0.026330000000    -0.00636493 
C212     C      0.487450000000     0.478040000000     0.035860000000    -0.0676517  
C213     C      0.494190000000     0.475340000000     0.072050000000    -0.00688683 
C214     C      0.470820000000     0.474970000000     0.098160000000    -0.00547887 
C215     C      0.440170000000     0.477200000000     0.088640000000    -0.069738   
C216     C      0.433660000000     0.480380000000     0.052470000000    -0.0058396  
C217     C      0.157710000000     0.015420000000     0.021950000000    -0.00565398 
C218     C      0.184230000000     0.007000000000     0.012420000000    -0.0671366  
C219     C      0.220810000000     0.032460000000     0.018330000000    -0.00295936 
C220     C      0.230730000000     0.065520000000     0.034500000000    -0.00578968 
C221     C      0.204100000000     0.072980000000     0.046250000000    -0.0671979  
C222     C      0.167550000000     0.047980000000     0.039280000000    -0.00497332 
C223     C      0.544300000000     0.048100000000     0.870760000000    -0.00602254 
C224     C      0.537030000000     0.074750000000     0.882740000000    -0.0672195  
C225     C      0.563780000000     0.111300000000     0.879450000000    -0.00522446 
C226     C      0.597790000000     0.121000000000     0.865590000000    -0.00499419 
C227     C      0.605710000000     0.094190000000     0.855940000000    -0.0675018  
C228     C      0.578630000000     0.057750000000     0.858070000000    -0.00275583 
C229     C      0.311360000000     0.957020000000     0.925240000000    -0.00589102 
C230     C      0.335940000000     0.969570000000     0.953680000000    -0.067078   
C231     C      0.323140000000     0.960840000000     0.988880000000    -0.00369587 
C232     C      0.286150000000     0.941890000000     0.995720000000    -0.00687584 
C233     C      0.261530000000     0.932050000000     0.967460000000    -0.0653889  
C234     C      0.274300000000     0.938630000000     0.932120000000    -0.00548981 
C235     C      0.106630000000     0.592490000000     0.743490000000    -0.00646348 
C236     C      0.079010000000     0.599900000000     0.751200000000    -0.0666998  
C237     C      0.042860000000     0.573010000000     0.745670000000    -0.00459633 
C238     C      0.034440000000     0.539570000000     0.731420000000    -0.00547524 
C239     C      0.062130000000     0.533030000000     0.721260000000    -0.071134   
C240     C      0.098270000000     0.559460000000     0.728060000000    -0.00419324 
C241     C      0.130490000000     0.772970000000     0.887510000000    -0.00697323 
C242     C      0.125580000000     0.780000000000     0.851990000000    -0.0677437  
C243     C      0.122280000000     0.810420000000     0.844330000000    -0.0067437  
C244     C      0.124000000000     0.833400000000     0.871630000000    -0.006861   
C245     C      0.128890000000     0.826330000000     0.907160000000    -0.0682577  
C246     C      0.132080000000     0.795850000000     0.914800000000    -0.00640502 
C247     C      0.704930000000     0.489160000000     0.920620000000    -0.00511183 
C248     C      0.732500000000     0.524830000000     0.913900000000    -0.0684684  
C249     C      0.727380000000     0.553440000000     0.923950000000    -0.00596737 
C250     C      0.694130000000     0.546420000000     0.937660000000    -0.00198759 
C251     C      0.666020000000     0.510770000000     0.942740000000    -0.0689524  
C252     C      0.672040000000     0.482190000000     0.935430000000    -0.00437818 
C253     C      0.947350000000     0.640740000000     0.843520000000    -0.00823019 
C254     C      0.920740000000     0.623800000000     0.817230000000    -0.0657395  
C255     C      0.930760000000     0.629420000000     0.781040000000    -0.00493573 
C256     C      0.967060000000     0.650070000000     0.771330000000    -0.0073596  
C257     C      0.993860000000     0.664810000000     0.797730000000    -0.0611874  
C258     C      0.983690000000     0.660820000000     0.833850000000     0.00182668 
C259     C      0.897560000000     0.742050000000     0.598430000000    -0.00569904 
C260     C      0.866640000000     0.727560000000     0.576700000000    -0.0656657  
C261     C      0.870390000000     0.725140000000     0.539720000000    -0.00628377 
C262     C      0.904650000000     0.737240000000     0.524800000000    -0.0065746  
C263     C      0.935360000000     0.750890000000     0.546850000000    -0.0642222  
C264     C      0.931430000000     0.753120000000     0.583750000000    -0.00548819 
C265     C      0.787140000000     0.648540000000     0.742200000000    -0.00833877 
C266     C      0.781920000000     0.636220000000     0.706890000000    -0.063796   
C267     C      0.777880000000     0.602130000000     0.699880000000    -0.00813397 
C268     C      0.779810000000     0.581130000000     0.727600000000    -0.00565817 
C269     C      0.785590000000     0.593780000000     0.762860000000    -0.0686838  
C270     C      0.788850000000     0.627530000000     0.769860000000    -0.00507868 
C271     C      0.608240000000     0.608580000000     0.681060000000    -0.00457425 
C272     C      0.584320000000     0.597990000000     0.652110000000    -0.0696247  
C273     C      0.597690000000     0.600700000000     0.617290000000    -0.00368619 
C274     C      0.634730000000     0.615680000000     0.611390000000    -0.00839342 
C275     C      0.658850000000     0.628740000000     0.640200000000    -0.0635567  
C276     C      0.645270000000     0.624150000000     0.675120000000    -0.00600947 
C277     C      0.476920000000     0.687480000000     0.687540000000    -0.00513901 
C278     C      0.504110000000     0.679380000000     0.680020000000    -0.0696356  
C279     C      0.540480000000     0.706160000000     0.684470000000    -0.0029589  
C280     C      0.549550000000     0.740050000000     0.697940000000    -0.00522276 
C281     C      0.522300000000     0.747130000000     0.708380000000    -0.0698901  
C282     C      0.485950000000     0.720970000000     0.702210000000    -0.00439884 
C283     C      0.455880000000     0.447550000000     0.563660000000    -0.00881988 
C284     C      0.454080000000     0.456640000000     0.528040000000    -0.0640403  
C285     C      0.450720000000     0.487040000000     0.520640000000    -0.00843553 
C286     C      0.449950000000     0.508390000000     0.548380000000    -0.00424743 
C287     C      0.452260000000     0.499540000000     0.584000000000    -0.0714582  
C288     C      0.454850000000     0.468690000000     0.591340000000    -0.0040565  
C289     C      0.439630000000     0.287220000000     0.377570000000    -0.0046223  
C290     C      0.431660000000     0.290100000000     0.413250000000    -0.0675192  
C291     C      0.415370000000     0.259000000000     0.434750000000    -0.00601528 
C292     C      0.405830000000     0.225240000000     0.420150000000    -0.00655281 
C293     C      0.413320000000     0.222420000000     0.384180000000    -0.0674725  
C294     C      0.430980000000     0.253860000000     0.363320000000    -0.00641987 
C295     C      0.026970000000     0.171180000000     0.527960000000    -0.0135299  
C296     C      0.059810000000     0.192310000000     0.546030000000    -0.0684954  
C297     C      0.059080000000     0.201810000000     0.581780000000    -0.00592567 
C298     C      0.025960000000     0.191090000000     0.598720000000    -0.0133172  
C299     C      0.993370000000     0.171500000000     0.579780000000    -0.0620352  
C300     C      0.994220000000     0.161260000000     0.544500000000     0.00187649 
C301     C      0.310810000000     0.335410000000     0.430430000000    -0.00675953 
C302     C      0.334870000000     0.346090000000     0.459240000000    -0.0653122  
C303     C      0.321320000000     0.338840000000     0.494280000000    -0.00433795 
C304     C      0.284200000000     0.319360000000     0.500420000000    -0.00680345 
C305     C      0.260180000000     0.306270000000     0.471550000000    -0.0652355  
C306     C      0.273650000000     0.315270000000     0.436550000000    -0.0049236  
C307     C      0.194610000000     0.386060000000     0.195460000000    -0.00458867 
C308     C      0.189640000000     0.414240000000     0.207390000000    -0.0717624  
C309     C      0.217320000000     0.450130000000     0.202080000000    -0.00414138 
C310     C      0.250230000000     0.457660000000     0.186910000000    -0.0056597  
C311     C      0.256190000000     0.429360000000     0.177930000000    -0.0683193  
C312     C      0.227890000000     0.393570000000     0.181440000000    -0.00357417 
C313     C      0.131570000000     0.302250000000     0.347250000000    -0.00472327 
C314     C      0.133270000000     0.334790000000     0.356810000000    -0.0713996  
C315     C      0.135810000000     0.343930000000     0.393010000000    -0.00493109 
C316     C      0.136370000000     0.320820000000     0.419150000000    -0.00768179 
C317     C      0.134280000000     0.288110000000     0.409560000000    -0.0662771  
C318     C      0.132020000000     0.279140000000     0.373340000000    -0.0079267  
C319     C      0.949140000000     0.278560000000     0.334510000000    -0.00801458 
C320     C      0.925090000000     0.267980000000     0.305640000000    -0.0673076  
C321     C      0.938770000000     0.275410000000     0.270660000000    -0.00478261 
C322     C      0.975940000000     0.295290000000     0.264680000000    -0.00618106 
C323     C      0.999890000000     0.308350000000     0.293640000000    -0.0643638  
C324     C      0.986300000000     0.298810000000     0.328540000000     0.00214279 
C325     C      0.879200000000     0.366500000000     0.341960000000    -0.00250459 
C326     C      0.842600000000     0.340130000000     0.338020000000    -0.0691399  
C327     C      0.815970000000     0.348880000000     0.346010000000    -0.00492263 
C328     C      0.825820000000     0.382680000000     0.360490000000    -0.00501566 
C329     C      0.862430000000     0.408480000000     0.366080000000    -0.0680745  
C330     C      0.889070000000     0.400660000000     0.355290000000    -0.00616551 
C331     C      0.797430000000     0.110560000000     0.217060000000    -0.00682106 
C332     C      0.794270000000     0.119520000000     0.181720000000    -0.0673294  
C333     C      0.790610000000     0.149900000000     0.175180000000    -0.00713368 
C334     C      0.790300000000     0.170980000000     0.203440000000    -0.00550862 
C335     C      0.793520000000     0.162000000000     0.238780000000    -0.0702528  
C336     C      0.797020000000     0.131530000000     0.245270000000    -0.00526761 
C337     C      0.776670000000     0.933450000000     0.075530000000    -0.00550818 
C338     C      0.749270000000     0.941370000000     0.082510000000    -0.0668749  
C339     C      0.713010000000     0.914440000000     0.077810000000    -0.00359584 
C340     C      0.704260000000     0.880370000000     0.065080000000    -0.00501134 
C341     C      0.731720000000     0.873230000000     0.055600000000    -0.069942   
C342     C      0.767970000000     0.899770000000     0.061560000000    -0.00386513 
C343     C      0.397050000000     0.903550000000     0.246680000000    -0.00523338 
C344     C      0.403330000000     0.875860000000     0.236010000000    -0.0698986  
C345     C      0.377570000000     0.839870000000     0.244200000000    -0.00422432 
C346     C      0.345270000000     0.831580000000     0.261340000000    -0.00583473 
C347     C      0.337860000000     0.859100000000     0.269420000000    -0.0677758  
C348     C      0.364270000000     0.895160000000     0.262680000000    -0.00341641 
C349     C      0.456220000000     0.936150000000     0.046340000000    -0.00571526 
C350     C      0.460310000000     0.948700000000     0.081500000000    -0.0694819  
C351     C      0.464480000000     0.982980000000     0.087660000000    -0.00526778 
C352     C      0.464860000000     0.004400000000     0.059210000000    -0.00813605 
C353     C      0.461080000000     0.991970000000     0.024030000000    -0.0659055  
C354     C      0.456600000000     0.957560000000     0.017910000000    -0.00711742 
C355     C      0.618140000000     0.989330000000     0.165920000000    -0.00604482 
C356     C      0.591960000000     0.973140000000     0.139130000000    -0.0674708  
C357     C      0.602790000000     0.978340000000     0.103150000000    -0.00516476 
C358     C      0.639400000000     0.997710000000     0.094180000000    -0.00677544 
C359     C      0.665650000000     0.011590000000     0.121130000000    -0.0662717  
C360     C      0.654730000000     0.008150000000     0.156990000000    -0.00514632 
C361     C      0.802700000000     0.718980000000     0.026780000000    -0.00556364 
C362     C      0.837230000000     0.746710000000     0.036590000000    -0.0690527  
C363     C      0.847080000000     0.782750000000     0.029370000000    -0.00435697 
C364     C      0.822090000000     0.791000000000     0.014310000000    -0.00517972 
C365     C      0.786690000000     0.763370000000     0.007340000000    -0.0674884  
C366     C      0.777410000000     0.727300000000     0.012850000000    -0.00300097 
C367     C      0.026850000000     0.788320000000     0.081550000000    -0.00276158 
C368     C      0.001360000000     0.799440000000     0.086060000000    -0.0718463  
C369     C      0.010670000000     0.834870000000     0.077260000000    -0.0127027  
C370     C      0.044160000000     0.858030000000     0.061530000000    -0.00246647 
C371     C      0.069070000000     0.846360000000     0.055550000000    -0.0697243  
C372     C      0.060740000000     0.811840000000     0.066980000000    -0.00589444 
C373     C      0.102050000000     0.530650000000     0.251780000000    -0.00482498 
C374     C      0.065790000000     0.521130000000     0.246380000000    -0.0691111  
C375     C      0.038280000000     0.486470000000     0.256080000000    -0.00651694 
C376     C      0.046950000000     0.460750000000     0.267860000000    -0.00318607 
C377     C      0.083200000000     0.469700000000     0.271340000000    -0.0704355  
C378     C      0.110700000000     0.505240000000     0.264760000000    -0.00500622 
C379     C      0.950980000000     0.624790000000     0.179710000000    -0.0054227  
C380     C      0.964970000000     0.612210000000     0.153340000000    -0.0675715  
C381     C      0.958080000000     0.615540000000     0.117190000000    -0.00384165 
C382     C      0.939310000000     0.633110000000     0.107480000000    -0.00634071 
C383     C      0.927710000000     0.648090000000     0.133780000000    -0.066155   
C384     C      0.932730000000     0.642880000000     0.169980000000    -0.00504341 
C385     C      0.111940000000     0.710680000000     0.200850000000    -0.00392932 
C386     C      0.120610000000     0.683600000000     0.194890000000    -0.0672295  
C387     C      0.155940000000     0.690930000000     0.201280000000    -0.00585402 
C388     C      0.181520000000     0.724010000000     0.216130000000    -0.00434284 
C389     C      0.172360000000     0.750540000000     0.223620000000    -0.0699033  
C390     C      0.137830000000     0.744170000000     0.214500000000    -0.00526803 
C391     C      0.485020000000     0.757190000000     0.209650000000    -0.00438181 
C392     C      0.520810000000     0.766120000000     0.217020000000    -0.0711746  
C393     C      0.549240000000     0.799980000000     0.206460000000    -0.00459816 
C394     C      0.541920000000     0.825490000000     0.191340000000    -0.00388268 
C395     C      0.506130000000     0.817100000000     0.185340000000    -0.0678436  
C396     C      0.477750000000     0.782340000000     0.193360000000    -0.00603109 
C397     C      0.405570000000     0.559290000000     0.243710000000    -0.00433189 
C398     C      0.416040000000     0.533510000000     0.237450000000    -0.0701478  
C399     C      0.450130000000     0.540500000000     0.249110000000    -0.00513302 
C400     C      0.474480000000     0.573960000000     0.264010000000    -0.00293017 
C401     C      0.464640000000     0.600380000000     0.268680000000    -0.0696534  
C402     C      0.429530000000     0.592320000000     0.259780000000    -0.00528521 
C403     C      0.758200000000     0.511990000000     0.391890000000    -0.00463284 
C404     C      0.771030000000     0.548910000000     0.386180000000    -0.0660585  
C405     C      0.806710000000     0.574190000000     0.395510000000    -0.00590633 
C406     C      0.829910000000     0.562540000000     0.408170000000    -0.00302569 
C407     C      0.817360000000     0.525590000000     0.412950000000    -0.0661665  
C408     C      0.781090000000     0.500420000000     0.405800000000    -0.00545145 
C409     C      0.769630000000     0.620530000000     0.211780000000    -0.00772079 
C410     C      0.778240000000     0.633820000000     0.246710000000    -0.0655062  
C411     C      0.808370000000     0.668340000000     0.252470000000    -0.00727641 
C412     C      0.829770000000     0.688970000000     0.223900000000    -0.0056208  
C413     C      0.821400000000     0.675480000000     0.189020000000    -0.0684494  
C414     C      0.790980000000     0.641170000000     0.183220000000    -0.00536137 
C415     C      0.660810000000     0.655860000000     0.280590000000    -0.00500064 
C416     C      0.668520000000     0.649940000000     0.315650000000    -0.0653439  
C417     C      0.656790000000     0.662160000000     0.344390000000    -0.00733522 
C418     C      0.635160000000     0.677470000000     0.338180000000    -0.00414958 
C419     C      0.625590000000     0.681350000000     0.303150000000    -0.0686784  
C420     C      0.639760000000     0.671770000000     0.274360000000    -0.00506975 
C421     C      0.606300000000     0.493870000000     0.403830000000    -0.00489594 
C422     C      0.609570000000     0.501920000000     0.367260000000    -0.0664714  
C423     C      0.578630000000     0.485500000000     0.345500000000    -0.00625113 
C424     C      0.544680000000     0.462200000000     0.360520000000    -0.0068197  
C425     C      0.541550000000     0.454410000000     0.397250000000    -0.0664778  
C426     C      0.572750000000     0.470060000000     0.418590000000    -0.00642164 
C427     C      0.107990000000     0.387760000000     0.680580000000    -0.0033047  
C428     C      0.117700000000     0.423890000000     0.674580000000    -0.0681886  
C429     C      0.152830000000     0.451390000000     0.682740000000    -0.00565684 
C430     C      0.176990000000     0.442970000000     0.699480000000    -0.00420028 
C431     C      0.166600000000     0.406900000000     0.707250000000    -0.0706737  
C432     C      0.132490000000     0.379270000000     0.696230000000    -0.00535257 
C433     C      0.354400000000     0.455960000000     0.762100000000    -0.00368533 
C434     C      0.326940000000     0.464430000000     0.766510000000    -0.0684494  
C435     C      0.333910000000     0.499230000000     0.757980000000    -0.00575053 
C436     C      0.366970000000     0.524280000000     0.742560000000    -0.00432425 
C437     C      0.393830000000     0.515180000000     0.736530000000    -0.0715328  
C438     C      0.387820000000     0.481350000000     0.747820000000    -0.00466262 
C439     C      0.415500000000     0.155970000000     0.856090000000    -0.00686295 
C440     C      0.399300000000     0.170240000000     0.878080000000    -0.0660103  
C441     C      0.394840000000     0.161350000000     0.914590000000    -0.00746722 
C442     C      0.406360000000     0.138380000000     0.928720000000    -0.00558019 
C443     C      0.421550000000     0.123350000000     0.906290000000    -0.0684207  
C444     C      0.426080000000     0.132470000000     0.869940000000    -0.00425975 
C445     C      0.279650000000     0.282400000000     0.844960000000    -0.00759378 
C446     C      0.294730000000     0.273080000000     0.816760000000    -0.0651539  
C447     C      0.287960000000     0.279220000000     0.781430000000    -0.00518105 
C448     C      0.268040000000     0.296160000000     0.774370000000    -0.00536252 
C449     C      0.255180000000     0.307900000000     0.802570000000    -0.0687764  
C450     C      0.260300000000     0.300070000000     0.837910000000    -0.00464764 
C451     C      0.490660000000     0.398350000000     0.864150000000    -0.00610729 
C452     C      0.500100000000     0.399230000000     0.900290000000    -0.0702745  
C453     C      0.485290000000     0.366690000000     0.919520000000    -0.00563915 
C454     C      0.460480000000     0.334230000000     0.903600000000    -0.0053278  
C455     C      0.450400000000     0.333260000000     0.867810000000    -0.0673224  
C456     C      0.466240000000     0.365420000000     0.847850000000    -0.00654528 
C457     C      0.451930000000     0.898580000000     0.745500000000    -0.00491811 
C458     C      0.417640000000     0.870640000000     0.735290000000    -0.0702608  
C459     C      0.408290000000     0.834670000000     0.741950000000    -0.00429482 
C460     C      0.433530000000     0.826710000000     0.756870000000    -0.00547337 
C461     C      0.468750000000     0.854600000000     0.764190000000    -0.0685229  
C462     C      0.477510000000     0.890580000000     0.759240000000    -0.00338005 
C463     C      0.246350000000     0.779880000000     0.683500000000    -0.00527371 
C464     C      0.254500000000     0.815470000000     0.677320000000    -0.0692082  
C465     C      0.227680000000     0.824670000000     0.682800000000    -0.00323818 
C466     C      0.193690000000     0.799090000000     0.695860000000    -0.00609853 
C467     C      0.186520000000     0.764310000000     0.704850000000    -0.0684734  
C468     C      0.212770000000     0.754620000000     0.697760000000    -0.00479969 
C469     C      0.159810000000     0.090370000000     0.529190000000    -0.00403634 
C470     C      0.196130000000     0.101170000000     0.536430000000    -0.0707843  
C471     C      0.223360000000     0.135420000000     0.525270000000    -0.00491708 
C472     C      0.214250000000     0.159610000000     0.510010000000    -0.00268376 
C473     C      0.177900000000     0.149440000000     0.504510000000    -0.0673642  
C474     C      0.150780000000     0.114220000000     0.512870000000    -0.00547627 
C475     C      0.311770000000     0.003260000000     0.601890000000    -0.00599027 
C476     C      0.298720000000     0.015060000000     0.629890000000    -0.0685276  
C477     C      0.305370000000     0.009110000000     0.665350000000    -0.00514669 
C478     C      0.322630000000     0.989510000000     0.672700000000    -0.00602749 
C479     C      0.333030000000     0.975190000000     0.644680000000    -0.0681054  
C480     C      0.328600000000     0.983250000000     0.609240000000    -0.00532664 
C481     C      0.108770000000     0.929930000000     0.585690000000    -0.00442881 
C482     C      0.144320000000     0.939520000000     0.594570000000    -0.0692521  
C483     C      0.155130000000     0.913640000000     0.592080000000    -0.00218547 
C484     C      0.131110000000     0.878930000000     0.579660000000    -0.0073874  
C485     C      0.096370000000     0.870060000000     0.568310000000    -0.0649205  
C486     C      0.085100000000     0.895550000000     0.572090000000    -0.00651123 
C487     C      0.255900000000     0.114080000000     0.725860000000    -0.00474124 
C488     C      0.268850000000     0.121990000000     0.690740000000    -0.0709219  
C489     C      0.302550000000     0.153000000000     0.684200000000    -0.00445613 
C490     C      0.323230000000     0.175240000000     0.712260000000    -0.00871592 
C491     C      0.310600000000     0.167000000000     0.747450000000    -0.064304   
C492     C      0.276560000000     0.136420000000     0.753940000000    -0.00835936 
C493     C      0.888110000000     0.456500000000     0.890640000000    -0.00642372 
C494     C      0.861150000000     0.422640000000     0.902970000000    -0.065687   
C495     C      0.824690000000     0.411600000000     0.896230000000    -0.00545862 
C496     C      0.815290000000     0.434700000000     0.878770000000    -0.00500813 
C497     C      0.842190000000     0.469570000000     0.868940000000    -0.0678753  
C498     C      0.878660000000     0.480040000000     0.874350000000    -0.00255906 
C499     C      0.778020000000     0.254810000000     0.939900000000    -0.00740862 
C500     C      0.813830000000     0.264100000000     0.947000000000    -0.064024   
C501     C      0.825350000000     0.239550000000     0.938740000000    -0.00537103 
C502     C      0.801810000000     0.206730000000     0.922230000000    -0.00445154 
C503     C      0.766850000000     0.198650000000     0.912600000000    -0.0705125  
C504     C      0.754850000000     0.222550000000     0.922230000000    -0.0030862  
C505     C      0.974120000000     0.479010000000     0.040980000000    -0.00842721 
C506     C      0.940270000000     0.449210000000     0.049900000000    -0.0646573  
C507     C      0.928520000000     0.444660000000     0.085390000000    -0.00683463 
C508     C      0.950310000000     0.469310000000     0.111480000000    -0.00768757 
C509     C      0.984260000000     0.498990000000     0.102570000000    -0.0609379  
C510     C      0.995890000000     0.503650000000     0.067050000000    -9.8694e-05 
C511     C      0.120900000000     0.190880000000     0.029370000000    -0.00204602 
C512     C      0.102240000000     0.201390000000     0.052610000000    -0.0765762  
C513     C      0.107300000000     0.200450000000     0.089630000000    -0.00295903 
C514     C      0.131010000000     0.189480000000     0.103000000000    -0.00873282 
C515     C      0.150400000000     0.180100000000     0.079430000000    -0.0657969  
C516     C      0.144870000000     0.180690000000     0.042580000000    -0.00753675 
C517     C      0.111210000000     0.302830000000     0.854190000000    -0.00598785 
C518     C      0.143200000000     0.335610000000     0.861280000000    -0.0702566  
C519     C      0.151290000000     0.347790000000     0.896580000000    -0.00639846 
C520     C      0.128670000000     0.326990000000     0.924360000000    -0.00490532 
C521     C      0.097360000000     0.293600000000     0.917480000000    -0.0708927  
C522     C      0.088430000000     0.282040000000     0.882050000000    -0.00732774 
C523     C      0.016770000000     0.336360000000     0.008670000000    -0.0120302  
C524     C      0.003650000000     0.306910000000     0.032410000000    -0.0832641  
C525     C      0.969910000000     0.294480000000     0.048590000000     0.00403035 
C526     C      0.948480000000     0.309260000000     0.038970000000    -0.00937902 
C527     C      0.960230000000     0.336270000000     0.012620000000    -0.0659539  
C528     C      0.995050000000     0.350610000000     0.998520000000     0.00577904 
C529     C      0.923980000000     0.116730000000     0.022940000000    -0.00349253 
C530     C      0.931040000000     0.148400000000     0.004960000000    -0.0726033  
C531     C      0.902310000000     0.154880000000     0.998830000000    -0.00447941 
C532     C      0.867920000000     0.131580000000     0.013190000000    -0.00742731 
C533     C      0.861990000000     0.101690000000     0.033950000000    -0.0693894  
C534     C      0.889940000000     0.093730000000     0.037300000000    -0.00574658 
C535     C      0.475230000000     0.116200000000     0.404130000000    -0.0038846  
C536     C      0.463350000000     0.107050000000     0.368800000000    -0.0690257  
C537     C      0.475490000000     0.087650000000     0.348620000000    -0.00537059 
C538     C      0.497940000000     0.076200000000     0.364310000000    -0.00776166 
C539     C      0.509100000000     0.084780000000     0.400050000000    -0.0669431  
C540     C      0.498120000000     0.105580000000     0.419420000000    -0.00709359 
C541     C      0.696810000000     0.117830000000     0.422810000000    -0.00369809 
C542     C      0.670340000000     0.127230000000     0.429450000000    -0.0651687  
C543     C      0.677100000000     0.161780000000     0.420170000000    -0.00600913 
C544     C      0.708990000000     0.185790000000     0.402280000000    -0.00361526 
C545     C      0.734940000000     0.175900000000     0.394410000000    -0.0711834  
C546     C      0.729190000000     0.142240000000     0.406010000000    -0.00430485 
C547     C      0.471560000000     0.978930000000     0.595210000000    -0.0041722  
C548     C      0.440240000000     0.946370000000     0.586120000000    -0.0708105  
C549     C      0.434020000000     0.935790000000     0.550210000000    -0.00476121 
C550     C      0.458510000000     0.957560000000     0.523910000000    -0.00837707 
C551     C      0.489590000000     0.990350000000     0.533020000000    -0.0638414  
C552     C      0.495930000000     0.000700000000     0.568950000000    -0.00884952 
C553     C      0.724330000000     0.813830000000     0.596050000000    -0.00734201 
C554     C      0.729970000000     0.822850000000     0.559590000000    -0.0659605  
C555     C      0.747280000000     0.808960000000     0.538650000000    -0.00678591 
C556     C      0.757610000000     0.785590000000     0.553400000000    -0.00492639 
C557     C      0.751700000000     0.776190000000     0.589660000000    -0.0666207  
C558     C      0.735530000000     0.790970000000     0.611100000000    -0.00631704 
C559     C      0.625190000000     0.937060000000     0.457180000000    -0.00409272 
C560     C      0.631890000000     0.931650000000     0.492800000000    -0.064399   
C561     C      0.620150000000     0.945110000000     0.520450000000    -0.00679303 
C562     C      0.604220000000     0.965870000000     0.512460000000    -0.00568624 
C563     C      0.599100000000     0.972720000000     0.476770000000    -0.0634739  
C564     C      0.608540000000     0.957100000000     0.449210000000    -0.0076077  
C565     C      0.819610000000     0.051740000000     0.534700000000    -0.00658526 
C566     C      0.829290000000     0.055900000000     0.571000000000    -0.0664981  
C567     C      0.815350000000     0.025210000000     0.592970000000    -0.0063936  
C568     C      0.791170000000     0.991190000000     0.579350000000    -0.0048613  
C569     C      0.781090000000     0.986950000000     0.543260000000    -0.0663796  
C570     C      0.795990000000     0.017360000000     0.520800000000    -0.00614918 
C571     C      0.603260000000     0.788880000000     0.435110000000    -0.00890104 
C572     C      0.637360000000     0.819250000000     0.428250000000    -0.0631419  
C573     C      0.648350000000     0.828950000000     0.392790000000    -0.0090396  
C574     C      0.625960000000     0.808520000000     0.364740000000    -0.00406424 
C575     C      0.592180000000     0.777710000000     0.371480000000    -0.0712323  
C576     C      0.580920000000     0.768170000000     0.406960000000    -0.00430555 
H1       H      0.291990000000     0.262420000000     0.189280000000     0.0515522  
H2       H      0.310100000000     0.286300000000     0.076670000000     0.0513737  
H3       H      0.338140000000     0.350720000000     0.089780000000     0.051393   
H4       H      0.320550000000     0.326800000000     0.202430000000     0.0521983  
H5       H      0.366420000000     0.149570000000     0.210090000000     0.0528492  
H6       H      0.279780000000     0.126970000000     0.283250000000     0.0538875  
H7       H      0.243020000000     0.128000000000     0.233790000000     0.0524017  
H8       H      0.329680000000     0.150600000000     0.160660000000     0.0531692  
H9       H      0.308350000000     0.021770000000     0.265610000000     0.0504783  
H10      H      0.300030000000     0.002660000000     0.379300000000     0.0495663  
H11      H      0.265730000000     0.937480000000     0.368480000000     0.0514713  
H12      H      0.273580000000     0.956930000000     0.254780000000     0.0533217  
H13      H      0.081690000000     0.811630000000     0.388230000000     0.0525502  
H14      H      0.148330000000     0.794310000000     0.463350000000     0.0539592  
H15      H      0.188900000000     0.799590000000     0.415070000000     0.0516736  
H16      H      0.122090000000     0.816760000000     0.340030000000     0.0525487  
H17      H      0.964660000000     0.588040000000     0.517680000000     0.0537675  
H18      H      0.974950000000     0.620530000000     0.407130000000     0.0558709  
H19      H      0.005680000000     0.683780000000     0.425470000000     0.0418336  
H20      H      0.996060000000     0.651370000000     0.536010000000     0.0495806  
H21      H      0.940770000000     0.461070000000     0.605060000000     0.0543131  
H22      H      0.022620000000     0.473540000000     0.529990000000     0.0470718  
H23      H      0.985430000000     0.474550000000     0.480950000000     0.0550484  
H24      H      0.903600000000     0.462050000000     0.556070000000     0.0532565  
H25      H      0.932970000000     0.276750000000     0.571630000000     0.0509201  
H26      H      0.930710000000     0.259780000000     0.685460000000     0.0516017  
H27      H      0.959680000000     0.324710000000     0.695350000000     0.0533555  
H28      H      0.962770000000     0.342000000000     0.581480000000     0.0520707  
H29      H      0.754730000000     0.152770000000     0.717190000000     0.0526712  
H30      H      0.822670000000     0.136580000000     0.791610000000     0.052613   
H31      H      0.859850000000     0.136790000000     0.742360000000     0.0535666  
H32      H      0.791980000000     0.153070000000     0.667930000000     0.05456    
H33      H      0.664590000000     0.992720000000     0.870510000000     0.0527131  
H34      H      0.676110000000     0.018690000000     0.758090000000     0.0516979  
H35      H      0.638980000000     0.954650000000     0.743640000000     0.0521753  
H36      H      0.627150000000     0.928790000000     0.856100000000     0.0518581  
H37      H      0.683450000000     0.808960000000     0.867740000000     0.0524478  
H38      H      0.606340000000     0.799490000000     0.947240000000     0.0529209  
H39      H      0.567150000000     0.800650000000     0.900420000000     0.0524293  
H40      H      0.644230000000     0.810040000000     0.820910000000     0.0527272  
H41      H      0.595560000000     0.598530000000     0.026330000000     0.0522001  
H42      H      0.601160000000     0.613440000000     0.911990000000     0.0518588  
H43      H      0.631890000000     0.678800000000     0.920450000000     0.0518987  
H44      H      0.625810000000     0.663750000000     0.034790000000     0.0528701  
H45      H      0.451370000000     0.483270000000     0.998610000000     0.0529373  
H46      H      0.517540000000     0.473550000000     0.080230000000     0.0530709  
H47      H      0.476490000000     0.472280000000     0.125840000000     0.052667   
H48      H      0.410110000000     0.481810000000     0.044310000000     0.052307   
H49      H      0.129340000000     0.995920000000     0.018110000000     0.0440386  
H50      H      0.241650000000     0.026250000000     0.011460000000     0.0451729  
H51      H      0.259040000000     0.084260000000     0.039760000000     0.0491235  
H52      H      0.146550000000     0.053210000000     0.048100000000     0.0468001  
H53      H      0.524190000000     0.019760000000     0.873220000000     0.0502675  
H54      H      0.558690000000     0.132300000000     0.888510000000     0.0477218  
H55      H      0.618530000000     0.149230000000     0.864550000000     0.0447673  
H56      H      0.584410000000     0.036690000000     0.850950000000     0.0445397  
H57      H      0.320700000000     0.963470000000     0.897930000000     0.0505995  
H58      H      0.341760000000     0.970020000000     0.011230000000     0.0507036  
H59      H      0.276960000000     0.937060000000     0.023150000000     0.053636   
H60      H      0.255680000000     0.930970000000     0.909850000000     0.0517996  
H61      H      0.134690000000     0.613040000000     0.747170000000     0.0448928  
H62      H      0.021170000000     0.578330000000     0.751270000000     0.0438077  
H63      H      0.006420000000     0.519800000000     0.726160000000     0.0478203  
H64      H      0.120090000000     0.555030000000     0.720330000000     0.0463158  
H65      H      0.132720000000     0.749580000000     0.894300000000     0.0524685  
H66      H      0.118190000000     0.816420000000     0.817180000000     0.0524472  
H67      H      0.121840000000     0.856840000000     0.864870000000     0.0516833  
H68      H      0.136170000000     0.789780000000     0.941910000000     0.0531834  
H69      H      0.708230000000     0.466650000000     0.912950000000     0.0476036  
H70      H      0.748020000000     0.581130000000     0.918710000000     0.0507604  
H71      H      0.689790000000     0.568810000000     0.942830000000     0.0428283  
H72      H      0.650480000000     0.454500000000     0.938680000000     0.0423591  
H73      H      0.940310000000     0.636870000000     0.871560000000     0.0542294  
H74      H      0.910610000000     0.616860000000     0.760220000000     0.0518817  
H75      H      0.974240000000     0.652720000000     0.743350000000     0.0539268  
H76      H      0.003950000000     0.672180000000     0.854710000000     0.0457917  
H77      H      0.895500000000     0.744200000000     0.627020000000     0.0515863  
H78      H      0.846950000000     0.714240000000     0.522380000000     0.0502133  
H79      H      0.907010000000     0.734990000000     0.496280000000     0.04965    
H80      H      0.954660000000     0.763530000000     0.601340000000     0.0508631  
H81      H      0.789960000000     0.674470000000     0.748520000000     0.0538841  
H82      H      0.773570000000     0.591790000000     0.672890000000     0.0536446  
H83      H      0.777470000000     0.555400000000     0.721350000000     0.0519249  
H84      H      0.793480000000     0.638170000000     0.796740000000     0.0534953  
H85      H      0.598620000000     0.606710000000     0.708110000000     0.0522976  
H86      H      0.579650000000     0.592400000000     0.594500000000     0.0509543  
H87      H      0.644580000000     0.618990000000     0.584270000000     0.0507721  
H88      H      0.663430000000     0.633810000000     0.697820000000     0.0519346  
H89      H      0.448710000000     0.667040000000     0.684690000000     0.04512    
H90      H      0.561840000000     0.700300000000     0.678970000000     0.0453587  
H91      H      0.577720000000     0.759610000000     0.702780000000     0.0495513  
H92      H      0.464490000000     0.725840000000     0.710220000000     0.0463524  
H93      H      0.458020000000     0.424060000000     0.570200000000     0.0536221  
H94      H      0.448960000000     0.494530000000     0.493390000000     0.0538031  
H95      H      0.448270000000     0.532150000000     0.541910000000     0.0517614  
H96      H      0.456910000000     0.461240000000     0.618540000000     0.0523905  
H97      H      0.452170000000     0.310830000000     0.360460000000     0.0488198  
H98      H      0.408680000000     0.260570000000     0.462270000000     0.0487339  
H99      H      0.392390000000     0.201400000000     0.436840000000     0.0508664  
H100     H      0.437110000000     0.252570000000     0.335530000000     0.0518488  
H101     H      0.026510000000     0.163320000000     0.500440000000     0.0528641  
H102     H      0.084010000000     0.217970000000     0.596360000000     0.0499189  
H103     H      0.025900000000     0.199550000000     0.625900000000     0.0478106  
H104     H      0.969450000000     0.146120000000     0.529350000000     0.0480126  
H105     H      0.320690000000     0.340740000000     0.403240000000     0.0504609  
H106     H      0.339510000000     0.347190000000     0.516960000000     0.0510099  
H107     H      0.274450000000     0.312780000000     0.527590000000     0.0521564  
H108     H      0.255490000000     0.305640000000     0.413840000000     0.0517238  
H109     H      0.173850000000     0.358170000000     0.199560000000     0.0497218  
H110     H      0.214110000000     0.472300000000     0.211210000000     0.0465241  
H111     H      0.271910000000     0.485440000000     0.184870000000     0.0448298  
H112     H      0.232130000000     0.371360000000     0.174920000000     0.0447744  
H113     H      0.129340000000     0.294300000000     0.319540000000     0.0520519  
H114     H      0.136800000000     0.368620000000     0.401190000000     0.0515846  
H115     H      0.138460000000     0.328630000000     0.446890000000     0.0532408  
H116     H      0.130800000000     0.254360000000     0.365110000000     0.0530659  
H117     H      0.939270000000     0.273120000000     0.361690000000     0.0544398  
H118     H      0.920700000000     0.267240000000     0.247900000000     0.0521603  
H119     H      0.985740000000     0.302160000000     0.237550000000     0.0544857  
H120     H      0.004320000000     0.308280000000     0.351360000000     0.0461368  
H121     H      0.900150000000     0.360160000000     0.336080000000     0.0453666  
H122     H      0.787610000000     0.328780000000     0.343550000000     0.0449353  
H123     H      0.804790000000     0.388110000000     0.368730000000     0.0475598  
H124     H      0.917430000000     0.419920000000     0.359620000000     0.0503064  
H125     H      0.799840000000     0.087100000000     0.222990000000     0.0536373  
H126     H      0.787770000000     0.157300000000     0.148200000000     0.0525109  
H127     H      0.787980000000     0.194500000000     0.197580000000     0.0519449  
H128     H      0.799860000000     0.124050000000     0.272210000000     0.0528515  
H129     H      0.804810000000     0.954030000000     0.078600000000     0.0448023  
H130     H      0.691500000000     0.920180000000     0.082870000000     0.044659   
H131     H      0.676150000000     0.860510000000     0.060350000000     0.0490178  
H132     H      0.789600000000     0.894880000000     0.054250000000     0.0464517  
H133     H      0.416320000000     0.931440000000     0.240380000000     0.0491318  
H134     H      0.381830000000     0.818050000000     0.236120000000     0.0463902  
H135     H      0.325080000000     0.803570000000     0.265890000000     0.0450762  
H136     H      0.358920000000     0.916780000000     0.268510000000     0.0456422  
H137     H      0.453360000000     0.910080000000     0.040710000000     0.0524564  
H138     H      0.467970000000     0.993560000000     0.114480000000     0.0524853  
H139     H      0.467930000000     0.030570000000     0.064790000000     0.0526057  
H140     H      0.453290000000     0.947040000000     0.991080000000     0.053712   
H141     H      0.610510000000     0.985810000000     0.193800000000     0.0523801  
H142     H      0.583010000000     0.966340000000     0.081940000000     0.0516457  
H143     H      0.647160000000     0.999950000000     0.066400000000     0.05144    
H144     H      0.674570000000     0.018890000000     0.178280000000     0.0515485  
H145     H      0.794340000000     0.691040000000     0.032400000000     0.0498447  
H146     H      0.873560000000     0.804600000000     0.036850000000     0.0478032  
H147     H      0.829600000000     0.819000000000     0.010660000000     0.0446875  
H148     H      0.750080000000     0.705620000000     0.007850000000     0.0442972  
H149     H      0.020000000000     0.760950000000     0.088060000000     0.043209   
H150     H      0.991200000000     0.843770000000     0.080190000000     0.0510293  
H151     H      0.050050000000     0.884580000000     0.052840000000     0.0452427  
H152     H      0.079380000000     0.802150000000     0.062370000000     0.049595   
H153     H      0.123720000000     0.557220000000     0.244280000000     0.0463922  
H154     H      0.010160000000     0.478360000000     0.251760000000     0.0478004  
H155     H      0.025340000000     0.433360000000     0.272660000000     0.0432364  
H156     H      0.138820000000     0.512560000000     0.266900000000     0.0448824  
H157     H      0.955890000000     0.622490000000     0.207710000000     0.0529477  
H158     H      0.968340000000     0.605710000000     0.096330000000     0.0532449  
H159     H      0.935770000000     0.636770000000     0.079430000000     0.0533061  
H160     H      0.923740000000     0.654000000000     0.190800000000     0.0523415  
H161     H      0.084710000000     0.705410000000     0.196240000000     0.0443995  
H162     H      0.163010000000     0.670220000000     0.197250000000     0.0453073  
H163     H      0.207990000000     0.728330000000     0.223080000000     0.0465594  
H164     H      0.130020000000     0.764040000000     0.220340000000     0.0495119  
H165     H      0.462640000000     0.731230000000     0.217640000000     0.0466221  
H166     H      0.577030000000     0.807630000000     0.212110000000     0.0504862  
H167     H      0.564200000000     0.852270000000     0.185480000000     0.0460566  
H168     H      0.449940000000     0.775490000000     0.189320000000     0.0455927  
H169     H      0.379410000000     0.554500000000     0.234800000000     0.0462898  
H170     H      0.458960000000     0.521230000000     0.244250000000     0.0495155  
H171     H      0.501570000000     0.579790000000     0.270530000000     0.0455237  
H172     H      0.421570000000     0.612490000000     0.262760000000     0.0448457  
H173     H      0.730700000000     0.492040000000     0.384860000000     0.0472248  
H174     H      0.817230000000     0.602750000000     0.391090000000     0.0490812  
H175     H      0.857930000000     0.582340000000     0.413430000000     0.0458063  
H176     H      0.771040000000     0.471800000000     0.408980000000     0.0452977  
H177     H      0.746380000000     0.594230000000     0.206490000000     0.053228   
H178     H      0.815520000000     0.679470000000     0.279110000000     0.0539565  
H179     H      0.853200000000     0.715130000000     0.229220000000     0.0530195  
H180     H      0.783960000000     0.629910000000     0.156610000000     0.0531116  
H181     H      0.669850000000     0.646850000000     0.257960000000     0.0514612  
H182     H      0.662360000000     0.657820000000     0.371620000000     0.0509459  
H183     H      0.624770000000     0.685010000000     0.360850000000     0.0511459  
H184     H      0.632850000000     0.674560000000     0.247160000000     0.0527891  
H185     H      0.629760000000     0.506180000000     0.421170000000     0.0496369  
H186     H      0.580530000000     0.491590000000     0.317250000000     0.0489885  
H187     H      0.521000000000     0.450280000000     0.343490000000     0.0504198  
H188     H      0.571160000000     0.464570000000     0.446970000000     0.0519461  
H189     H      0.080840000000     0.366180000000     0.674660000000     0.0440635  
H190     H      0.160650000000     0.479430000000     0.678730000000     0.0445075  
H191     H      0.203170000000     0.464740000000     0.707850000000     0.0469355  
H192     H      0.123720000000     0.351310000000     0.702200000000     0.0493381  
H193     H      0.349430000000     0.429130000000     0.768310000000     0.0457472  
H194     H      0.312930000000     0.506140000000     0.760740000000     0.0456671  
H195     H      0.370970000000     0.550200000000     0.733980000000     0.046805   
H196     H      0.407930000000     0.473550000000     0.743210000000     0.0501617  
H197     H      0.419280000000     0.162300000000     0.827860000000     0.0519664  
H198     H      0.382590000000     0.172170000000     0.932140000000     0.0503051  
H199     H      0.402310000000     0.131450000000     0.956800000000     0.0481663  
H200     H      0.437700000000     0.121250000000     0.852060000000     0.049063   
H201     H      0.284510000000     0.277880000000     0.872370000000     0.0495546  
H202     H      0.299040000000     0.271880000000     0.759190000000     0.0508989  
H203     H      0.264520000000     0.301880000000     0.746930000000     0.0527558  
H204     H      0.250460000000     0.308760000000     0.860140000000     0.0507015  
H205     H      0.501760000000     0.423040000000     0.848690000000     0.0501012  
H206     H      0.491950000000     0.366370000000     0.947380000000     0.0520941  
H207     H      0.448740000000     0.309800000000     0.919540000000     0.0489176  
H208     H      0.458630000000     0.365320000000     0.820240000000     0.0485323  
H209     H      0.459910000000     0.926500000000     0.740290000000     0.0502266  
H210     H      0.382020000000     0.812670000000     0.734110000000     0.0466133  
H211     H      0.426400000000     0.798770000000     0.760100000000     0.0452757  
H212     H      0.504660000000     0.912470000000     0.764560000000     0.0451216  
H213     H      0.266780000000     0.772350000000     0.679830000000     0.045578   
H214     H      0.233540000000     0.852080000000     0.678340000000     0.0451051  
H215     H      0.174070000000     0.807310000000     0.701440000000     0.0488683  
H216     H      0.207850000000     0.727960000000     0.704650000000     0.0464123  
H217     H      0.138340000000     0.064080000000     0.537660000000     0.0469586  
H218     H      0.251500000000     0.144510000000     0.530840000000     0.0499522  
H219     H      0.235530000000     0.186880000000     0.504050000000     0.0438066  
H220     H      0.122570000000     0.106100000000     0.509320000000     0.0424495  
H221     H      0.307000000000     0.007500000000     0.574360000000     0.0526593  
H222     H      0.295770000000     0.018210000000     0.687450000000     0.0516901  
H223     H      0.325860000000     0.983790000000     0.700220000000     0.0527394  
H224     H      0.336760000000     0.972780000000     0.587120000000     0.0519242  
H225     H      0.100110000000     0.949690000000     0.587020000000     0.0442821  
H226     H      0.182590000000     0.920700000000     0.598610000000     0.0442153  
H227     H      0.140490000000     0.859840000000     0.576770000000     0.0500166  
H228     H      0.058370000000     0.889240000000     0.563460000000     0.0472677  
H229     H      0.230190000000     0.090260000000     0.731740000000     0.0517915  
H230     H      0.313380000000     0.159760000000     0.657410000000     0.0523543  
H231     H      0.349150000000     0.198800000000     0.706380000000     0.0534562  
H232     H      0.265950000000     0.129520000000     0.780800000000     0.0538359  
H233     H      0.916350000000     0.465770000000     0.895830000000     0.0504233  
H234     H      0.803420000000     0.385610000000     0.905620000000     0.0471742  
H235     H      0.787010000000     0.426270000000     0.875260000000     0.0449325  
H236     H      0.899820000000     0.506980000000     0.867150000000     0.0457213  
H237     H      0.768730000000     0.273530000000     0.945770000000     0.046601   
H238     H      0.852970000000     0.246310000000     0.943970000000     0.0465466  
H239     H      0.811760000000     0.188890000000     0.914780000000     0.0480528  
H240     H      0.727980000000     0.216860000000     0.914930000000     0.046038   
H241     H      0.984060000000     0.483150000000     0.013840000000     0.0560044  
H242     H      0.902780000000     0.421800000000     0.093110000000     0.0528552  
H243     H      0.940460000000     0.465160000000     0.138650000000     0.0545051  
H244     H      0.021690000000     0.526430000000     0.059320000000     0.0473487  
H245     H      0.117610000000     0.191250000000     0.000720000000     0.0504694  
H246     H      0.093090000000     0.208260000000     0.108120000000     0.0479833  
H247     H      0.135050000000     0.189480000000     0.131540000000     0.0492971  
H248     H      0.159390000000     0.173510000000     0.023800000000     0.0507301  
H249     H      0.104270000000     0.292700000000     0.827180000000     0.0513844  
H250     H      0.175730000000     0.372810000000     0.902920000000     0.0525017  
H251     H      0.136140000000     0.336880000000     0.951390000000     0.0550413  
H252     H      0.064390000000     0.256590000000     0.875940000000     0.0492817  
H253     H      0.042680000000     0.346560000000     0.995660000000     0.0522868  
H254     H      0.959040000000     0.271770000000     0.066840000000     0.0484954  
H255     H      0.921840000000     0.298010000000     0.050610000000     0.0527549  
H256     H      0.005000000000     0.371910000000     0.978690000000     0.0441349  
H257     H      0.945440000000     0.110850000000     0.027920000000     0.0516192  
H258     H      0.907010000000     0.179210000000     0.985250000000     0.0484474  
H259     H      0.846830000000     0.138320000000     0.010130000000     0.0495003  
H260     H      0.886070000000     0.070600000000     0.052690000000     0.051166   
H261     H      0.466250000000     0.131120000000     0.420260000000     0.0480781  
H262     H      0.466330000000     0.079970000000     0.321400000000     0.0476646  
H263     H      0.506120000000     0.060300000000     0.348730000000     0.050477   
H264     H      0.506220000000     0.112710000000     0.446980000000     0.0531369  
H265     H      0.691830000000     0.091080000000     0.429430000000     0.0438843  
H266     H      0.656750000000     0.169290000000     0.424580000000     0.0431908  
H267     H      0.712820000000     0.211600000000     0.393520000000     0.0468999  
H268     H      0.748600000000     0.133860000000     0.399980000000     0.0497382  
H269     H      0.477070000000     0.987960000000     0.622660000000     0.0527462  
H270     H      0.410000000000     0.911030000000     0.542380000000     0.0516935  
H271     H      0.453030000000     0.948720000000     0.496410000000     0.0538689  
H272     H      0.519790000000     0.025580000000     0.576850000000     0.0538999  
H273     H      0.711240000000     0.824360000000     0.612830000000     0.0503467  
H274     H      0.752040000000     0.815400000000     0.510500000000     0.0525082  
H275     H      0.769960000000     0.774530000000     0.536260000000     0.0497624  
H276     H      0.730350000000     0.783790000000     0.639070000000     0.0490275  
H277     H      0.633850000000     0.926670000000     0.435390000000     0.0505502  
H278     H      0.625140000000     0.941350000000     0.548060000000     0.0498475  
H279     H      0.596830000000     0.977440000000     0.534210000000     0.05198    
H280     H      0.604850000000     0.961960000000     0.421550000000     0.0520049  
H281     H      0.830170000000     0.074980000000     0.517170000000     0.0509124  
H282     H      0.822310000000     0.027570000000     0.621040000000     0.051902   
H283     H      0.780010000000     0.968160000000     0.597220000000     0.049308   
H284     H      0.788290000000     0.014760000000     0.492930000000     0.049612   
H285     H      0.593930000000     0.780940000000     0.462250000000     0.0533658  
H286     H      0.674220000000     0.852450000000     0.386630000000     0.0541972  
H287     H      0.635590000000     0.816510000000     0.337690000000     0.0527633  
H288     H      0.555210000000     0.744400000000     0.412980000000     0.0514309  
In1      In     0.697380000000     0.888260000000     0.509520000000     2.49544    
In2      In     0.567110000000     0.047020000000     0.456440000000     2.48569    
In3      In     0.036050000000     0.235480000000     0.005420000000     2.39643    
In4      In     0.889650000000     0.368130000000     0.975730000000     2.4891     
In5      In     0.223370000000     0.046220000000     0.610220000000     2.45689    
In6      In     0.360860000000     0.897160000000     0.663190000000     2.4524     
In7      In     0.366340000000     0.236340000000     0.830320000000     2.49158    
In8      In     0.221590000000     0.381470000000     0.782720000000     2.44733    
In9      In     0.708860000000     0.581590000000     0.330400000000     2.50109    
In10     In     0.544910000000     0.706260000000     0.287930000000     2.44503    
In11     In     0.037770000000     0.578990000000     0.177700000000     2.46466    
In12     In     0.895720000000     0.721470000000     0.107730000000     2.4723     
In13     In     0.485430000000     0.899900000000     0.163190000000     2.45538    
In14     In     0.772830000000     0.046360000000     0.100570000000     2.46092    
In15     In     0.817360000000     0.234280000000     0.321530000000     2.44896    
In16     In     0.106720000000     0.387070000000     0.279840000000     2.45071    
In17     In     0.153230000000     0.229850000000     0.485930000000     2.48445    
In18     In     0.444050000000     0.387520000000     0.446860000000     2.50468    
In19     In     0.478360000000     0.573080000000     0.665680000000     2.44483    
In20     In     0.768370000000     0.694260000000     0.625970000000     2.49317    
In21     In     0.815800000000     0.547820000000     0.843350000000     2.45898    
In22     In     0.100970000000     0.703640000000     0.773230000000     2.46534    
In23     In     0.443570000000     0.044140000000     0.940040000000     2.48773    
In24     In     0.155580000000     0.901960000000     0.987030000000     2.47267    
In25     In     0.562490000000     0.492940000000     0.958520000000     2.47163    
In26     In     0.703700000000     0.784940000000     0.990390000000     2.46171    
In27     In     0.710620000000     0.117710000000     0.838390000000     2.4682     
In28     In     0.551010000000     0.831450000000     0.779110000000     2.45994    
In29     In     0.895660000000     0.155430000000     0.617600000000     2.49751    
In30     In     0.036080000000     0.446580000000     0.653770000000     2.44928    
In31     In     0.892770000000     0.494740000000     0.434560000000     2.47687    
In32     In     0.036510000000     0.777400000000     0.509150000000     2.49001    
In33     In     0.381490000000     0.124890000000     0.334160000000     2.48917    
In34     In     0.233420000000     0.835150000000     0.292740000000     2.4609     
In35     In     0.231810000000     0.160910000000     0.111760000000     2.4826     
In36     In     0.361050000000     0.450230000000     0.164940000000     2.45328    
O1       O      0.727440000000     0.930120000000     0.551230000000    -0.505213   
O2       O      0.750470000000     0.940460000000     0.498640000000    -0.477012   
O3       O      0.693790000000     0.851790000000     0.555870000000    -0.482737   
O4       O      0.652190000000     0.897780000000     0.528410000000    -0.476056   
O5       O      0.692210000000     0.868490000000     0.452800000000    -0.48075    
O6       O      0.678730000000     0.919860000000     0.478200000000    -0.502168   
O7       O      0.731260000000     0.862050000000     0.513220000000    -0.505427   
O8       O      0.648490000000     0.838010000000     0.489430000000    -0.496245   
O9       O      0.616080000000     0.071320000000     0.421300000000    -0.500666   
O10      O      0.617940000000     0.101320000000     0.467890000000    -0.476047   
O11      O      0.534830000000     0.045790000000     0.406860000000    -0.48054    
O12      O      0.572290000000     0.999070000000     0.439140000000    -0.476472   
O13      O      0.544820000000     0.042220000000     0.512280000000    -0.477602   
O14      O      0.591960000000     0.022820000000     0.490930000000    -0.497936   
O15      O      0.545730000000     0.084520000000     0.448160000000    -0.508803   
O16      O      0.512850000000     0.001660000000     0.473420000000    -0.496702   
O17      O      0.085220000000     0.280550000000     0.979390000000    -0.481202   
O18      O      0.044670000000     0.242600000000     0.944390000000    -0.471582   
O19      O      0.066250000000     0.230640000000     0.054420000000    -0.479253   
O20      O      0.048220000000     0.292830000000     0.014420000000    -0.478918   
O21      O      0.978420000000     0.205500000000     0.981490000000    -0.467404   
O22      O      0.003510000000     0.251610000000     0.041860000000    -0.486211   
O23      O      0.068510000000     0.207480000000     0.005000000000    -0.500704   
O24      O      0.994130000000     0.177550000000     0.017580000000    -0.489596   
O25      O      0.932710000000     0.423060000000     0.992290000000    -0.502639   
O26      O      0.888900000000     0.393460000000     0.028880000000    -0.480179   
O27      O      0.899880000000     0.400470000000     0.924220000000    -0.480119   
O28      O      0.940150000000     0.364200000000     0.969120000000    -0.475857   
O29      O      0.834330000000     0.317770000000     0.982760000000    -0.47946    
O30      O      0.907450000000     0.341680000000     0.016170000000    -0.495876   
O31      O      0.851350000000     0.385060000000     0.953790000000    -0.501191   
O32      O      0.870780000000     0.318210000000     0.943010000000    -0.499709   
O33      O      0.263330000000     0.101350000000     0.630750000000    -0.501762   
O34      O      0.220500000000     0.066530000000     0.665820000000    -0.477389   
O35      O      0.235390000000     0.080640000000     0.559750000000    -0.480005   
O36      O      0.270760000000     0.040010000000     0.592060000000    -0.470498   
O37      O      0.167930000000     0.997380000000     0.623590000000    -0.473047   
O38      O      0.252270000000     0.027150000000     0.646110000000    -0.498752   
O39      O      0.184290000000     0.060870000000     0.585250000000    -0.502023   
O40      O      0.200580000000     0.992370000000     0.583370000000    -0.497396   
O41      O      0.416770000000     0.937750000000     0.645180000000    -0.501106   
O42      O      0.383100000000     0.897230000000     0.607570000000    -0.474723   
O43      O      0.394260000000     0.908230000000     0.714240000000    -0.477843   
O44      O      0.354660000000     0.944150000000     0.682460000000    -0.470279   
O45      O      0.312880000000     0.841540000000     0.648490000000    -0.474201   
O46      O      0.342820000000     0.927340000000     0.627840000000    -0.498235   
O47      O      0.376810000000     0.858520000000     0.686860000000    -0.500402   
O48      O      0.306080000000     0.872800000000     0.688880000000    -0.497073   
O49      O      0.395950000000     0.276770000000     0.873220000000    -0.507646   
O50      O      0.419100000000     0.289690000000     0.820730000000    -0.476338   
O51      O      0.362970000000     0.199050000000     0.875780000000    -0.479577   
O52      O      0.318960000000     0.241670000000     0.850660000000    -0.476121   
O53      O      0.363140000000     0.218580000000     0.772840000000    -0.47886    
O54      O      0.345040000000     0.267000000000     0.801240000000    -0.504791   
O55      O      0.400650000000     0.210590000000     0.833060000000    -0.505442   
O56      O      0.319470000000     0.185640000000     0.808590000000    -0.498059   
O57      O      0.276250000000     0.406120000000     0.756850000000    -0.49577    
O58      O      0.268880000000     0.438020000000     0.796070000000    -0.470397   
O59      O      0.187900000000     0.368640000000     0.731580000000    -0.477914   
O60      O      0.229630000000     0.335260000000     0.764830000000    -0.472723   
O61      O      0.199680000000     0.383570000000     0.837650000000    -0.47896    
O62      O      0.241270000000     0.353150000000     0.819110000000    -0.495298   
O63      O      0.206390000000     0.419640000000     0.756700000000    -0.499998   
O64      O      0.165680000000     0.341080000000     0.801940000000    -0.497845   
O65      O      0.760100000000     0.626650000000     0.307790000000    -0.502906   
O66      O      0.726890000000     0.581950000000     0.273370000000    -0.482849   
O67      O      0.749330000000     0.590130000000     0.374230000000    -0.483683   
O68      O      0.701560000000     0.627870000000     0.349930000000    -0.476472   
O69      O      0.655190000000     0.529560000000     0.321320000000    -0.478163   
O70      O      0.679880000000     0.603320000000     0.298990000000    -0.504897   
O71      O      0.727820000000     0.542280000000     0.341990000000    -0.503321   
O72      O      0.667050000000     0.555170000000     0.372770000000    -0.506274   
O73      O      0.583730000000     0.760810000000     0.310200000000    -0.501938   
O74      O      0.543050000000     0.723290000000     0.345550000000    -0.473404   
O75      O      0.557800000000     0.742260000000     0.238600000000    -0.478096   
O76      O      0.593080000000     0.702710000000     0.267300000000    -0.468413   
O77      O      0.488660000000     0.657470000000     0.299490000000    -0.47416    
O78      O      0.575950000000     0.687680000000     0.321440000000    -0.495479   
O79      O      0.507150000000     0.723760000000     0.264500000000    -0.498694   
O80      O      0.522250000000     0.652580000000     0.260440000000    -0.49696    
O81      O      0.063120000000     0.632160000000     0.206130000000    -0.500242   
O82      O      0.093480000000     0.626640000000     0.163610000000    -0.474694   
O83      O      0.027930000000     0.545410000000     0.228420000000    -0.481737   
O84      O      0.991710000000     0.588060000000     0.193920000000    -0.470643   
O85      O      0.035900000000     0.554520000000     0.123250000000    -0.47498    
O86      O      0.012170000000     0.600180000000     0.140270000000    -0.505707   
O87      O      0.076200000000     0.561700000000     0.198370000000    -0.502777   
O88      O      0.993780000000     0.524100000000     0.161030000000    -0.490643   
O89      O      0.947820000000     0.743000000000     0.077870000000    -0.499603   
O90      O      0.945200000000     0.777070000000     0.118170000000    -0.475161   
O91      O      0.860090000000     0.708730000000     0.058110000000    -0.481452   
O92      O      0.902150000000     0.673390000000     0.093140000000    -0.470487   
O93      O      0.875460000000     0.724790000000     0.163020000000    -0.477694   
O94      O      0.917090000000     0.696350000000     0.145610000000    -0.498516   
O95      O      0.879150000000     0.759500000000     0.084120000000    -0.50255    
O96      O      0.841320000000     0.680590000000     0.128830000000    -0.502126   
O97      O      0.514400000000     0.875870000000     0.192320000000    -0.497012   
O98      O      0.475580000000     0.842920000000     0.152730000000    -0.473063   
O99      O      0.463970000000     0.913210000000     0.213350000000    -0.478898   
O100     O      0.540490000000     0.947180000000     0.178900000000    -0.471119   
O101     O      0.463090000000     0.898240000000     0.107280000000    -0.476737   
O102     O      0.532910000000     0.924600000000     0.126390000000    -0.497058   
O103     O      0.430290000000     0.863150000000     0.186760000000    -0.500483   
O104     O      0.473110000000     0.941720000000     0.142130000000    -0.499695   
O105     O      0.745130000000     0.993740000000     0.070760000000    -0.496319   
O106     O      0.779580000000     0.997930000000     0.114430000000    -0.470293   
O107     O      0.799450000000     0.080640000000     0.050230000000    -0.477629   
O108     O      0.718170000000     0.038290000000     0.082510000000    -0.471012   
O109     O      0.792810000000     0.066890000000     0.156760000000    -0.475738   
O110     O      0.724520000000     0.023360000000     0.135770000000    -0.498856   
O111     O      0.829510000000     0.064320000000     0.083390000000    -0.507337   
O112     O      0.783250000000     0.100210000000     0.120800000000    -0.497821   
O113     O      0.804600000000     0.180360000000     0.299740000000    -0.500464   
O114     O      0.796750000000     0.215270000000     0.264680000000    -0.47561    
O115     O      0.795200000000     0.198800000000     0.371360000000    -0.479371   
O116     O      0.870950000000     0.241420000000     0.341590000000    -0.468162   
O117     O      0.809190000000     0.282230000000     0.308540000000    -0.472029   
O118     O      0.866730000000     0.255560000000     0.287550000000    -0.497785   
O119     O      0.762360000000     0.216550000000     0.345430000000    -0.500513   
O120     O      0.847330000000     0.288080000000     0.348870000000    -0.49618    
O121     O      0.121410000000     0.345930000000     0.297330000000    -0.5018     
O122     O      0.127340000000     0.385120000000     0.335870000000    -0.475985   
O123     O      0.128510000000     0.376910000000     0.228230000000    -0.47999    
O124     O      0.053670000000     0.341380000000     0.257840000000    -0.470761   
O125     O      0.115760000000     0.442440000000     0.297100000000    -0.474358   
O126     O      0.057450000000     0.354910000000     0.313290000000    -0.497995   
O127     O      0.161690000000     0.425810000000     0.256570000000    -0.500612   
O128     O      0.076510000000     0.412820000000     0.256700000000    -0.498586   
O129     O      0.179220000000     0.204210000000     0.517120000000    -0.502605   
O130     O      0.149070000000     0.176120000000     0.470490000000    -0.476506   
O131     O      0.124370000000     0.230730000000     0.537060000000    -0.482057   
O132     O      0.205560000000     0.277070000000     0.506760000000    -0.475195   
O133     O      0.136300000000     0.235530000000     0.429840000000    -0.478911   
O134     O      0.203380000000     0.257590000000     0.453380000000    -0.499996   
O135     O      0.094330000000     0.192520000000     0.496020000000    -0.51156    
O136     O      0.143910000000     0.274930000000     0.469320000000    -0.498937   
O137     O      0.433590000000     0.346120000000     0.405290000000    -0.507569   
O138     O      0.445080000000     0.335520000000     0.458370000000    -0.478641   
O139     O      0.476330000000     0.423930000000     0.400520000000    -0.483635   
O140     O      0.390440000000     0.379430000000     0.425840000000    -0.478439   
O141     O      0.458300000000     0.406670000000     0.503980000000    -0.481317   
O142     O      0.392490000000     0.356010000000     0.476160000000    -0.506535   
O143     O      0.504290000000     0.415000000000     0.443620000000    -0.508615   
O144     O      0.446110000000     0.437720000000     0.467050000000    -0.498489   
O145     O      0.462160000000     0.517980000000     0.644860000000    -0.501759   
O146     O      0.458640000000     0.554610000000     0.608530000000    -0.474671   
O147     O      0.454870000000     0.538190000000     0.715720000000    -0.478366   
O148     O      0.530390000000     0.577720000000     0.687520000000    -0.469417   
O149     O      0.470930000000     0.621150000000     0.651300000000    -0.473557   
O150     O      0.528000000000     0.590460000000     0.632600000000    -0.495192   
O151     O      0.423290000000     0.556750000000     0.688700000000    -0.498875   
O152     O      0.509600000000     0.627790000000     0.691300000000    -0.497079   
O153     O      0.770550000000     0.645950000000     0.646260000000    -0.495984   
O154     O      0.784170000000     0.689720000000     0.682680000000    -0.480585   
O155     O      0.801400000000     0.691160000000     0.579890000000    -0.481124   
O156     O      0.713980000000     0.648590000000     0.606570000000    -0.476985   
O157     O      0.767890000000     0.746790000000     0.635700000000    -0.475734   
O158     O      0.717630000000     0.674970000000     0.656550000000    -0.502994   
O159     O      0.828610000000     0.728670000000     0.622640000000    -0.5048     
O160     O      0.756430000000     0.723450000000     0.583270000000    -0.504107   
O161     O      0.846640000000     0.526900000000     0.874180000000    -0.497025   
O162     O      0.809120000000     0.491730000000     0.834760000000    -0.474995   
O163     O      0.793810000000     0.561270000000     0.892830000000    -0.478325   
O164     O      0.870060000000     0.596750000000     0.857820000000    -0.469794   
O165     O      0.792080000000     0.544830000000     0.787600000000    -0.473407   
O166     O      0.862480000000     0.573370000000     0.805640000000    -0.4973     
O167     O      0.760680000000     0.510700000000     0.866810000000    -0.50087    
O168     O      0.801420000000     0.588050000000     0.822610000000    -0.500835   
O169     O      0.073510000000     0.651860000000     0.742320000000    -0.49777    
O170     O      0.109410000000     0.655750000000     0.784500000000    -0.473416   
O171     O      0.124500000000     0.739410000000     0.723770000000    -0.480381   
O172     O      0.044960000000     0.693080000000     0.757600000000    -0.471238   
O173     O      0.123230000000     0.726240000000     0.828530000000    -0.477026   
O174     O      0.054150000000     0.679680000000     0.810520000000    -0.498861   
O175     O      0.156990000000     0.722570000000     0.752300000000    -0.501986   
O176     O      0.110700000000     0.757380000000     0.792440000000    -0.498665   
O177     O      0.451230000000     0.000040000000     0.962770000000    -0.500403   
O178     O      0.461450000000     0.043890000000     0.997490000000    -0.478819   
O179     O      0.473830000000     0.035280000000     0.895240000000    -0.483824   
O180     O      0.391080000000     0.996620000000     0.919180000000    -0.473833   
O181     O      0.441000000000     0.095450000000     0.950870000000    -0.477825   
O182     O      0.392380000000     0.019050000000     0.970760000000    -0.506421   
O183     O      0.502120000000     0.082890000000     0.927470000000    -0.503621   
O184     O      0.426940000000     0.071090000000     0.898990000000    -0.50463    
O185     O      0.141800000000     0.847220000000     0.967300000000    -0.501541   
O186     O      0.134360000000     0.881520000000     0.930750000000    -0.478005   
O187     O      0.130130000000     0.866930000000     0.036330000000    -0.481435   
O188     O      0.208340000000     0.906120000000     0.004560000000    -0.472696   
O189     O      0.151700000000     0.952760000000     0.976950000000    -0.475732   
O190     O      0.203990000000     0.923670000000     0.951820000000    -0.499431   
O191     O      0.100060000000     0.886290000000     0.007190000000    -0.504002   
O192     O      0.186110000000     0.952870000000     0.018850000000    -0.496733   
O193     O      0.509290000000     0.486360000000     0.975900000000    -0.497859   
O194     O      0.541060000000     0.478280000000     0.015270000000    -0.476192   
O195     O      0.531240000000     0.464290000000     0.907600000000    -0.480076   
O196     O      0.569470000000     0.545260000000     0.935170000000    -0.47357    
O197     O      0.609940000000     0.485440000000     0.975590000000    -0.475384   
O198     O      0.587290000000     0.544560000000     0.988760000000    -0.501023   
O199     O      0.536700000000     0.433370000000     0.949590000000    -0.509687   
O200     O      0.614620000000     0.515580000000     0.928160000000    -0.501311   
O201     O      0.659380000000     0.794320000000     0.971250000000    -0.500991   
O202     O      0.700530000000     0.803000000000     0.933670000000    -0.47783    
O203     O      0.693800000000     0.810690000000     0.039170000000    -0.479924   
O204     O      0.659170000000     0.731400000000     0.012540000000    -0.47073    
O205     O      0.759130000000     0.792640000000     0.975420000000    -0.473068   
O206     O      0.675870000000     0.734440000000     0.958060000000    -0.498422   
O207     O      0.742130000000     0.841830000000     0.008980000000    -0.501205   
O208     O      0.730340000000     0.758920000000     0.019990000000    -0.497762   
O209     O      0.657250000000     0.088470000000     0.866390000000    -0.498455   
O210     O      0.663260000000     0.126650000000     0.825870000000    -0.472901   
O211     O      0.745340000000     0.138960000000     0.888810000000    -0.480793   
O212     O      0.701050000000     0.062250000000     0.854640000000    -0.471878   
O213     O      0.732220000000     0.141410000000     0.783260000000    -0.479182   
O214     O      0.688270000000     0.070660000000     0.801300000000    -0.499546   
O215     O      0.727260000000     0.171750000000     0.863090000000    -0.502617   
O216     O      0.765010000000     0.130190000000     0.818260000000    -0.502548   
O217     O      0.526350000000     0.861270000000     0.752830000000    -0.498637   
O218     O      0.495380000000     0.823280000000     0.793800000000    -0.474235   
O219     O      0.560930000000     0.808470000000     0.728170000000    -0.479482   
O220     O      0.598370000000     0.885060000000     0.760160000000    -0.471004   
O221     O      0.551890000000     0.810140000000     0.834920000000    -0.476166   
O222     O      0.580400000000     0.879520000000     0.814430000000    -0.499367   
O223     O      0.511970000000     0.776300000000     0.757110000000    -0.501706   
O224     O      0.592310000000     0.817160000000     0.797200000000    -0.50055    
O225     O      0.845400000000     0.151650000000     0.639740000000    -0.49958    
O226     O      0.879040000000     0.141940000000     0.675600000000    -0.479092   
O227     O      0.858060000000     0.121010000000     0.572800000000    -0.481624   
O228     O      0.899290000000     0.206920000000     0.595680000000    -0.475248   
O229     O      0.949870000000     0.157940000000     0.627140000000    -0.476024   
O230     O      0.926050000000     0.208330000000     0.644940000000    -0.504529   
O231     O      0.869990000000     0.095170000000     0.615710000000    -0.505714   
O232     O      0.935720000000     0.166530000000     0.574420000000    -0.507815   
O233     O      0.993230000000     0.457060000000     0.632240000000    -0.491077   
O234     O      0.035950000000     0.465730000000     0.596770000000    -0.474768   
O235     O      0.024230000000     0.471280000000     0.702220000000    -0.481447   
O236     O      0.990410000000     0.392840000000     0.674280000000    -0.46798    
O237     O      0.092070000000     0.454300000000     0.641430000000    -0.472608   
O238     O      0.008810000000     0.396700000000     0.620350000000    -0.502355   
O239     O      0.074000000000     0.502870000000     0.674350000000    -0.500412   
O240     O      0.060740000000     0.419090000000     0.684130000000    -0.498833   
O241     O      0.872310000000     0.525780000000     0.403690000000    -0.498549   
O242     O      0.838330000000     0.490750000000     0.445420000000    -0.475873   
O243     O      0.902580000000     0.469880000000     0.385080000000    -0.482523   
O244     O      0.941300000000     0.549270000000     0.419970000000    -0.469361   
O245     O      0.891060000000     0.471720000000     0.489900000000    -0.477466   
O246     O      0.918300000000     0.540780000000     0.472550000000    -0.497584   
O247     O      0.852860000000     0.439520000000     0.413620000000    -0.503414   
O248     O      0.934300000000     0.481610000000     0.454410000000    -0.500061   
O249     O      0.993680000000     0.756730000000     0.551150000000    -0.498931   
O250     O      0.981870000000     0.773950000000     0.501380000000    -0.474594   
O251     O      0.074500000000     0.807360000000     0.555090000000    -0.483859   
O252     O      0.030810000000     0.722960000000     0.522660000000    -0.4797     
O253     O      0.058140000000     0.799930000000     0.453930000000    -0.48038    
O254     O      0.010160000000     0.730340000000     0.472690000000    -0.506099   
O255     O      0.054020000000     0.834890000000     0.522870000000    -0.503293   
O256     O      0.089770000000     0.786870000000     0.489190000000    -0.498067   
O257     O      0.335070000000     0.129120000000     0.311860000000    -0.498135   
O258     O      0.379000000000     0.140410000000     0.276530000000    -0.478138   
O259     O      0.377530000000     0.157360000000     0.380220000000    -0.481183   
O260     O      0.333730000000     0.073090000000     0.356070000000    -0.474656   
O261     O      0.432900000000     0.122260000000     0.323010000000    -0.476562   
O262     O      0.357600000000     0.072500000000     0.305830000000    -0.506473   
O263     O      0.416140000000     0.185040000000     0.338550000000    -0.507104   
O264     O      0.411350000000     0.112870000000     0.376060000000    -0.50724    
O265     O      0.179390000000     0.822710000000     0.313700000000    -0.50133    
O266     O      0.213370000000     0.813580000000     0.349090000000    -0.4771     
O267     O      0.197010000000     0.811910000000     0.243760000000    -0.47902    
O268     O      0.240180000000     0.888760000000     0.274330000000    -0.472441   
O269     O      0.282320000000     0.827860000000     0.303380000000    -0.474092   
O270     O      0.255850000000     0.883960000000     0.327680000000    -0.497532   
O271     O      0.215100000000     0.779650000000     0.270510000000    -0.50176    
O272     O      0.285470000000     0.864180000000     0.262180000000    -0.496673   
O273     O      0.204930000000     0.178800000000     0.072220000000    -0.506081   
O274     O      0.178310000000     0.159230000000     0.122650000000    -0.475189   
O275     O      0.243250000000     0.134760000000     0.064550000000    -0.480396   
O276     O      0.277720000000     0.216420000000     0.094920000000    -0.474385   
O277     O      0.231210000000     0.138860000000     0.167410000000    -0.481455   
O278     O      0.252570000000     0.209800000000     0.146050000000    -0.502164   
O279     O      0.194390000000     0.103510000000     0.094410000000    -0.501488   
O280     O      0.276840000000     0.153990000000     0.133310000000    -0.502144   
O281     O      0.305990000000     0.421090000000     0.190000000000    -0.498113   
O282     O      0.314570000000     0.459650000000     0.149070000000    -0.472817   
O283     O      0.393710000000     0.472650000000     0.216480000000    -0.477593   
O284     O      0.352950000000     0.396230000000     0.184810000000    -0.470712   
O285     O      0.384040000000     0.471620000000     0.109360000000    -0.475693   
O286     O      0.341870000000     0.401690000000     0.129980000000    -0.496934   
O287     O      0.377350000000     0.505140000000     0.187570000000    -0.499961   
O288     O      0.416880000000     0.464460000000     0.147920000000    -0.501315   


