data_structure

_audit_creation_method RASPA-1.0
_audit_creation_date 2023-5-22
_audit_author_name 'Poobodin Mano'

_cell_length_a    31.2457
_cell_length_b    29.5413
_cell_length_c    71.9033
_cell_angle_alpha 89.9099
_cell_angle_beta  90.2676
_cell_angle_gamma 90.1263
_cell_volume      66368.6

_symmetry_cell_setting          triclinic
_symmetry_space_group_name_Hall 'P 1'
_symmetry_space_group_name_H-M  'P 1'
_symmetry_Int_Tables_number     1

_symmetry_equiv_pos_as_xyz 'x,y,z'

loop_
_atom_site_label
_atom_site_type_symbol
_atom_site_fract_x
_atom_site_fract_y
_atom_site_fract_z
_atom_site_charge
C1       C      0.058360000000     0.334110000000     0.840680000000     0.365567   
C2       C      0.964290000000     0.437160000000     0.325550000000     0.353195   
C3       C      0.979150000000     0.396300000000     0.886200000000     0.36507    
C4       C      0.079210000000     0.472230000000     0.857260000000     0.35678    
C5       C      0.077330000000     0.364420000000     0.079860000000     0.362916   
C6       C      0.970320000000     0.449500000000     0.061460000000     0.352847   
C7       C      0.973150000000     0.424000000000     0.120590000000     0.358145   
C8       C      0.081710000000     0.493250000000     0.101010000000     0.355701   
C9       C      0.752100000000     0.636710000000     0.911710000000     0.357027   
C10      C      0.842540000000     0.545710000000     0.939680000000     0.366602   
C11      C      0.814580000000     0.527000000000     0.878630000000     0.360073   
C12      C      0.888290000000     0.642510000000     0.897410000000     0.359876   
C13      C      0.799660000000     0.614140000000     0.169600000000     0.352019   
C14      C      0.878640000000     0.521950000000     0.195550000000     0.359092   
C15      C      0.839380000000     0.493980000000     0.133290000000     0.361648   
C16      C      0.928630000000     0.590810000000     0.144610000000     0.353029   
C17      C      0.902890000000     0.167670000000     0.046020000000     0.356043   
C18      C      0.825020000000     0.263450000000     0.069230000000     0.362716   
C19      C      0.872060000000     0.284610000000     0.008480000000     0.359008   
C20      C      0.772220000000     0.190640000000     0.020370000000     0.356998   
C21      C      0.924610000000     0.223160000000     0.284820000000     0.348123   
C22      C      0.837150000000     0.309800000000     0.309290000000     0.366946   
C23      C      0.877360000000     0.333060000000     0.246770000000     0.358887   
C24      C      0.792760000000     0.228030000000     0.261800000000     0.344285   
C25      C      0.672050000000     0.472100000000     0.959160000000     0.364016   
C26      C      0.769610000000     0.382960000000     0.942050000000     0.352504   
C27      C      0.767970000000     0.408640000000     0.003290000000     0.352633   
C28      C      0.658220000000     0.343890000000     0.980620000000     0.355006   
C29      C      0.635080000000     0.458620000000     0.216650000000     0.359082   
C30      C      0.739140000000     0.364880000000     0.196370000000     0.352598   
C31      C      0.742090000000     0.407250000000     0.253600000000     0.361496   
C32      C      0.631130000000     0.323980000000     0.232780000000     0.357835   
C33      C      0.447330000000     0.689170000000     0.914710000000     0.362104   
C34      C      0.356630000000     0.792640000000     0.932990000000     0.356877   
C35      C      0.400290000000     0.791040000000     0.873370000000     0.363644   
C36      C      0.317000000000     0.684340000000     0.894990000000     0.35326    
C37      C      0.302350000000     0.708260000000     0.151180000000     0.359385   
C38      C      0.387000000000     0.808650000000     0.133880000000     0.364988   
C39      C      0.348870000000     0.811670000000     0.194500000000     0.35486    
C40      C      0.424950000000     0.698540000000     0.176870000000     0.353748   
C41      C      0.526390000000     0.997650000000     0.976930000000     0.353139   
C42      C      0.444000000000     0.898440000000     0.001130000000     0.352024   
C43      C      0.421430000000     0.937610000000     0.939660000000     0.361435   
C44      C      0.532590000000     0.860790000000     0.956030000000     0.351075   
C45      C      0.574150000000     0.004780000000     0.219180000000     0.361793   
C46      C      0.502310000000     0.901360000000     0.249890000000     0.364851   
C47      C      0.482450000000     0.924890000000     0.186700000000     0.361292   
C48      C      0.591170000000     0.854870000000     0.210410000000     0.354606   
C49      C      0.434360000000     0.125570000000     0.026600000000     0.354344   
C50      C      0.342610000000     0.038920000000     0.001430000000     0.362011   
C51      C      0.378020000000     0.018960000000     0.062400000000     0.361724   
C52      C      0.299500000000     0.134400000000     0.043970000000     0.358286   
C53      C      0.271160000000     0.111620000000     0.290870000000     0.355651   
C54      C      0.334410000000     0.998880000000     0.308790000000     0.355889   
C55      C      0.315270000000     0.008310000000     0.246430000000     0.356115   
C56      C      0.396730000000     0.107940000000     0.269080000000     0.362209   
C57      C      0.127320000000     0.986590000000     0.834510000000     0.352889   
C58      C      0.234520000000     0.908020000000     0.318120000000     0.36007    
C59      C      0.223910000000     0.940420000000     0.878200000000     0.354341   
C60      C      0.123310000000     0.855820000000     0.857510000000     0.364369   
C61      C      0.129270000000     0.942400000000     0.084210000000     0.35613    
C62      C      0.236470000000     0.872060000000     0.057460000000     0.364739   
C63      C      0.240870000000     0.910170000000     0.117640000000     0.354354   
C64      C      0.151960000000     0.801510000000     0.098550000000     0.363864   
C65      C      0.266660000000     0.990360000000     0.199060000000    -0.0655196  
C66      C      0.298020000000     0.964700000000     0.190020000000     0.0215904  
C67      C      0.334150000000     0.950260000000     0.200140000000    -0.0636467  
C68      C      0.339540000000     0.963060000000     0.218790000000     0.0224542  
C69      C      0.308570000000     0.989970000000     0.227570000000    -0.102433   
C70      C      0.271820000000     0.002750000000     0.217590000000     0.0213615  
C71      C      0.291390000000     0.952240000000     0.170250000000     0.0203863  
C72      C      0.296090000000     0.907250000000     0.164430000000    -0.0625362  
C73      C      0.281510000000     0.893790000000     0.146880000000     0.0263322  
C74      C      0.262750000000     0.925350000000     0.134740000000    -0.103639   
C75      C      0.261080000000     0.971030000000     0.140010000000     0.0194091  
C76      C      0.275330000000     0.984360000000     0.157590000000    -0.0667876  
C77      C      0.301520000000     0.959720000000     0.963960000000    -0.06461    
C78      C      0.303290000000     0.987990000000     0.948230000000     0.0231465  
C79      C      0.321910000000     0.031100000000     0.949960000000    -0.063428   
C80      C      0.335890000000     0.046760000000     0.967170000000     0.0244679  
C81      C      0.331790000000     0.019640000000     0.983100000000    -0.0943871  
C82      C      0.315840000000     0.975390000000     0.981290000000     0.0229424  
C83      C      0.283140000000     0.974550000000     0.930350000000     0.0233041  
C84      C      0.287310000000     0.930510000000     0.923180000000    -0.0637552  
C85      C      0.268640000000     0.919160000000     0.906040000000     0.0219288  
C86      C      0.244990000000     0.951520000000     0.896020000000    -0.100203   
C87      C      0.240360000000     0.995170000000     0.903370000000     0.02049    
C88      C      0.259210000000     0.006540000000     0.920280000000    -0.0657285  
C89      C      0.366670000000     0.968970000000     0.110530000000    -0.0676883  
C90      C      0.409190000000     0.956930000000     0.114570000000     0.0254571  
C91      C      0.440140000000     0.960910000000     0.100510000000    -0.0654609  
C92      C      0.429370000000     0.978940000000     0.083200000000     0.0240607  
C93      C      0.387440000000     0.993320000000     0.079540000000    -0.10693    
C94      C      0.355800000000     0.986790000000     0.093110000000     0.0221113  
C95      C      0.422360000000     0.943640000000     0.133660000000     0.0235765  
C96      C      0.407210000000     0.967470000000     0.149230000000    -0.0645615  
C97      C      0.425380000000     0.960230000000     0.166810000000     0.0201664  
C98      C      0.458200000000     0.928310000000     0.169130000000    -0.104384   
C99      C      0.470980000000     0.902240000000     0.153850000000     0.0219645  
C100     C      0.453770000000     0.910340000000     0.136280000000    -0.0658469  
C101     C      0.318170000000     0.985550000000     0.860350000000    -0.0670858  
C102     C      0.354840000000     0.961360000000     0.865590000000     0.0240704  
C103     C      0.382730000000     0.945830000000     0.851750000000    -0.0653219  
C104     C      0.375020000000     0.955860000000     0.833030000000     0.0229716  
C105     C      0.338670000000     0.980660000000     0.827810000000    -0.10188    
C106     C      0.309590000000     0.994180000000     0.841600000000     0.0212605  
C107     C      0.366070000000     0.954930000000     0.885420000000     0.0234523  
C108     C      0.371360000000     0.992470000000     0.897180000000    -0.0650298  
C109     C      0.387930000000     0.986860000000     0.915160000000     0.0230634  
C110     C      0.398440000000     0.943510000000     0.921800000000    -0.104935   
C111     C      0.390950000000     0.905820000000     0.910290000000     0.0236432  
C112     C      0.375210000000     0.911540000000     0.892240000000    -0.0642466  
C113     C      0.282700000000     0.865810000000     0.232230000000    -0.0638529  
C114     C      0.311140000000     0.865370000000     0.247450000000     0.0237648  
C115     C      0.353140000000     0.849850000000     0.244720000000    -0.0638412  
C116     C      0.366260000000     0.834710000000     0.227210000000     0.0229304  
C117     C      0.337250000000     0.833640000000     0.212220000000    -0.104226   
C118     C      0.295500000000     0.849770000000     0.214870000000     0.0232993  
C119     C      0.296050000000     0.879230000000     0.266190000000     0.0226251  
C120     C      0.268990000000     0.916810000000     0.268090000000    -0.0672032  
C121     C      0.251140000000     0.927450000000     0.285260000000     0.0219898  
C122     C      0.258940000000     0.900060000000     0.300890000000    -0.100635   
C123     C      0.287160000000     0.863360000000     0.299270000000     0.019483   
C124     C      0.305890000000     0.853280000000     0.282080000000    -0.0674986  
C125     C      0.390380000000     0.900010000000     0.048410000000    -0.0625666  
C126     C      0.409760000000     0.862420000000     0.057090000000     0.0212174  
C127     C      0.436120000000     0.834320000000     0.046300000000    -0.0656334  
C128     C      0.445890000000     0.845540000000     0.027990000000     0.0196173  
C129     C      0.429010000000     0.884740000000     0.019780000000    -0.100479   
C130     C      0.400030000000     0.911150000000     0.029920000000     0.0221836  
C131     C      0.404280000000     0.852790000000     0.077360000000     0.0234768  
C132     C      0.438130000000     0.833220000000     0.087560000000    -0.0658786  
C133     C      0.432680000000     0.820120000000     0.106020000000     0.0211547  
C134     C      0.393830000000     0.827850000000     0.115120000000    -0.10116    
C135     C      0.360640000000     0.849810000000     0.105420000000     0.0237559  
C136     C      0.365690000000     0.861920000000     0.086680000000    -0.0618727  
C137     C      0.314070000000     0.832600000000     0.020640000000    -0.0633926  
C138     C      0.296030000000     0.851970000000     0.004500000000     0.0209812  
C139     C      0.260570000000     0.880740000000     0.006330000000    -0.070076   
C140     C      0.242290000000     0.888240000000     0.023660000000     0.027499   
C141     C      0.259080000000     0.867300000000     0.039640000000    -0.105607   
C142     C      0.295780000000     0.840300000000     0.038080000000     0.0230258  
C143     C      0.312320000000     0.840360000000     0.985710000000     0.0246655  
C144     C      0.356260000000     0.834140000000     0.982580000000    -0.0662871  
C145     C      0.371090000000     0.821050000000     0.965110000000     0.0255763  
C146     C      0.342120000000     0.813320000000     0.950470000000    -0.100656   
C147     C      0.298320000000     0.820530000000     0.953410000000     0.0191163  
C148     C      0.283560000000     0.833710000000     0.970850000000    -0.0683287  
C149     C      0.427110000000     0.888430000000     0.290670000000    -0.0641072  
C150     C      0.454350000000     0.868830000000     0.304070000000     0.0225747  
C151     C      0.497370000000     0.861050000000     0.299550000000    -0.0652161  
C152     C      0.512770000000     0.871920000000     0.281960000000     0.0246782  
C153     C      0.485490000000     0.890790000000     0.268480000000    -0.101605   
C154     C      0.442680000000     0.899610000000     0.273040000000     0.0229939  
C155     C      0.437890000000     0.853960000000     0.822360000000     0.0218988  
C156     C      0.462540000000     0.860110000000     0.838600000000    -0.0682264  
C157     C      0.449390000000     0.841320000000     0.855470000000     0.0216594  
C158     C      0.411620000000     0.815730000000     0.856320000000    -0.1062     
C159     C      0.386070000000     0.811170000000     0.840310000000     0.0245346  
C160     C      0.398980000000     0.830300000000     0.823500000000    -0.065884   
C161     C      0.530350000000     0.642140000000     0.188810000000    -0.0633819  
C162     C      0.516600000000     0.600290000000     0.195980000000     0.0216264  
C163     C      0.472480000000     0.591410000000     0.197090000000    -0.063558   
C164     C      0.442750000000     0.623410000000     0.190930000000     0.0200049  
C165     C      0.456490000000     0.665100000000     0.183650000000    -0.0961967  
C166     C      0.500580000000     0.674330000000     0.182790000000     0.0202629  
C167     C      0.548070000000     0.565400000000     0.201790000000     0.0227972  
C168     C      0.583440000000     0.555560000000     0.190500000000    -0.0654349  
C169     C      0.611860000000     0.521080000000     0.195430000000     0.0216513  
C170     C      0.605760000000     0.496040000000     0.211840000000    -0.099862   
C171     C      0.571010000000     0.506540000000     0.223360000000     0.0217747  
C172     C      0.542300000000     0.540730000000     0.218330000000    -0.065067   
C173     C      0.545380000000     0.233870000000     0.228170000000    -0.0653082  
C174     C      0.537350000000     0.223190000000     0.246910000000     0.0215063  
C175     C      0.561690000000     0.244580000000     0.260840000000    -0.0666566  
C176     C      0.592490000000     0.276900000000     0.256180000000     0.0193764  
C177     C      0.599750000000     0.288400000000     0.237490000000    -0.0995934  
C178     C      0.576350000000     0.266140000000     0.223500000000     0.0205954  
C179     C      0.502120000000     0.191860000000     0.252020000000     0.0225454  
C180     C      0.462100000000     0.195220000000     0.243140000000    -0.0645326  
C181     C      0.427970000000     0.167870000000     0.248680000000     0.0228182  
C182     C      0.433100000000     0.136540000000     0.263230000000    -0.100038   
C183     C      0.473260000000     0.132550000000     0.271940000000     0.0223413  
C184     C      0.507450000000     0.159980000000     0.266390000000    -0.0650575  
C185     C      0.552490000000     0.625660000000     0.915490000000    -0.0670151  
C186     C      0.552350000000     0.607060000000     0.933510000000     0.0208278  
C187     C      0.518100000000     0.616950000000     0.945410000000    -0.0663945  
C188     C      0.484200000000     0.643890000000     0.939300000000     0.0219435  
C189     C      0.483870000000     0.661660000000     0.921180000000    -0.100159   
C190     C      0.518590000000     0.652820000000     0.909400000000     0.0207647  
C191     C      0.586330000000     0.575260000000     0.939580000000     0.0217559  
C192     C      0.600010000000     0.540680000000     0.927630000000    -0.0641201  
C193     C      0.628680000000     0.507800000000     0.933900000000     0.024522   
C194     C      0.644470000000     0.508980000000     0.952220000000    -0.0988389  
C195     C      0.632270000000     0.544590000000     0.963950000000     0.0231458  
C196     C      0.603300000000     0.577330000000     0.957720000000    -0.0670621  
C197     C      0.513340000000     0.222190000000     0.024440000000    -0.0584533  
C198     C      0.533980000000     0.214000000000     0.007410000000     0.00761677 
C199     C      0.523710000000     0.174260000000     0.997540000000    -0.0499615  
C200     C      0.492580000000     0.144450000000     0.004230000000     0.00854727 
C201     C      0.470670000000     0.154030000000     0.020760000000    -0.0927393  
C202     C      0.481720000000     0.192790000000     0.030930000000     0.0162591  
C203     C      0.565200000000     0.247390000000     0.999840000000     0.0353926  
C204     C      0.559400000000     0.294070000000     0.002820000000    -0.0764905  
C205     C      0.589270000000     0.325440000000     0.996320000000     0.029107   
C206     C      0.625510000000     0.310930000000     0.986580000000    -0.0986354  
C207     C      0.630910000000     0.264530000000     0.983120000000     0.0262771  
C208     C      0.600970000000     0.233140000000     0.989590000000    -0.070426   
C209     C      0.012800000000     0.169130000000     0.813500000000    -0.0635522  
C210     C      0.017700000000     0.127160000000     0.304510000000     0.0212423  
C211     C      0.994090000000     0.118930000000     0.288140000000    -0.0635291  
C212     C      0.964760000000     0.150700000000     0.281480000000     0.0195152  
C213     C      0.958650000000     0.191730000000     0.290890000000    -0.0944544  
C214     C      0.983650000000     0.201130000000     0.806730000000     0.0193067  
C215     C      0.045960000000     0.091340000000     0.812430000000     0.0223005  
C216     C      0.084890000000     0.102410000000     0.821240000000    -0.0642962  
C217     C      0.111330000000     0.068450000000     0.828490000000     0.0216443  
C218     C      0.099230000000     0.022700000000     0.827190000000    -0.0933263  
C219     C      0.060160000000     0.011620000000     0.318640000000     0.0199956  
C220     C      0.033810000000     0.045490000000     0.311390000000    -0.0633835  
C221     C      0.620140000000     0.108990000000     0.242330000000    -0.0642811  
C222     C      0.656960000000     0.116570000000     0.231590000000     0.0235987  
C223     C      0.662780000000     0.091110000000     0.215290000000    -0.065155   
C224     C      0.634290000000     0.056430000000     0.210610000000     0.0226449  
C225     C      0.599400000000     0.046500000000     0.222160000000    -0.100982   
C226     C      0.591650000000     0.074180000000     0.237670000000     0.0222928  
C227     C      0.691460000000     0.147060000000     0.238410000000     0.0220241  
C228     C      0.682130000000     0.189010000000     0.246660000000    -0.0624754  
C229     C      0.714990000000     0.215830000000     0.254140000000     0.019149   
C230     C      0.757670000000     0.200870000000     0.253640000000    -0.0902981  
C231     C      0.766930000000     0.159250000000     0.245200000000     0.0180279  
C232     C      0.734270000000     0.132700000000     0.237680000000    -0.0624635  
C233     C      0.815090000000     0.399070000000     0.893880000000    -0.0645441  
C234     C      0.811810000000     0.354900000000     0.886700000000     0.0216881  
C235     C      0.800490000000     0.319520000000     0.898860000000    -0.0663969  
C236     C      0.788980000000     0.328540000000     0.917170000000     0.0197291  
C237     C      0.789270000000     0.373070000000     0.923910000000    -0.101729   
C238     C      0.803900000000     0.408110000000     0.912330000000     0.0228636  
C239     C      0.817630000000     0.345580000000     0.866510000000     0.0233417  
C240     C      0.791930000000     0.312710000000     0.857720000000    -0.0663038  
C241     C      0.797970000000     0.301860000000     0.839090000000     0.0227731  
C242     C      0.829190000000     0.324280000000     0.828590000000    -0.104287   
C243     C      0.853720000000     0.358600000000     0.836980000000     0.025685   
C244     C      0.848190000000     0.369010000000     0.855830000000    -0.0619423  
C245     C      0.020360000000     0.996030000000     0.076940000000    -0.0637127  
C246     C      0.031510000000     0.038970000000     0.069960000000     0.0222971  
C247     C      0.075090000000     0.050190000000     0.068310000000    -0.0639071  
C248     C      0.106730000000     0.019070000000     0.073290000000     0.0216828  
C249     C      0.095570000000     0.975980000000     0.080020000000    -0.0954977  
C250     C      0.052080000000     0.964860000000     0.081930000000     0.0200269  
C251     C      0.997970000000     0.071790000000     0.064120000000     0.0226499  
C252     C      0.961480000000     0.057190000000     0.054260000000    -0.0638744  
C253     C      0.930550000000     0.088290000000     0.048360000000     0.0205055  
C254     C      0.935460000000     0.134620000000     0.052200000000    -0.0968645  
C255     C      0.971740000000     0.149210000000     0.062140000000     0.021441   
C256     C      0.002630000000     0.118160000000     0.068040000000    -0.0641594  
C257     C      0.701110000000     0.112800000000     0.992020000000    -0.0667841  
C258     C      0.660560000000     0.120710000000     0.999800000000     0.0261479  
C259     C      0.656960000000     0.153080000000     0.014040000000    -0.0717563  
C260     C      0.693010000000     0.176760000000     0.020370000000     0.0248873  
C261     C      0.733580000000     0.168020000000     0.012830000000    -0.101694   
C262     C      0.737180000000     0.136080000000     0.998490000000     0.0273645  
C263     C      0.622800000000     0.093710000000     0.993570000000     0.0212729  
C264     C      0.617550000000     0.082060000000     0.974720000000    -0.0648666  
C265     C      0.585030000000     0.052340000000     0.969170000000     0.0188555  
C266     C      0.556920000000     0.033740000000     0.982330000000    -0.0917956  
C267     C      0.560610000000     0.047290000000     0.000990000000     0.0148353  
C268     C      0.593190000000     0.076940000000     0.006560000000    -0.06511    
C269     C      0.787630000000     0.293160000000     0.158640000000    -0.0660636  
C270     C      0.791900000000     0.324740000000     0.144090000000     0.0208767  
C271     C      0.783200000000     0.370540000000     0.147660000000    -0.0654064  
C272     C      0.767890000000     0.383980000000     0.165000000000     0.0198024  
C273     C      0.760920000000     0.351800000000     0.179080000000    -0.100923   
C274     C      0.772020000000     0.306510000000     0.175930000000     0.0201199  
C275     C      0.801590000000     0.309290000000     0.124920000000     0.0231854  
C276     C      0.827680000000     0.334970000000     0.112960000000    -0.0660182  
C277     C      0.835250000000     0.320460000000     0.094750000000     0.0225163  
C278     C      0.816630000000     0.280190000000     0.088170000000    -0.103132   
C279     C      0.790450000000     0.254760000000     0.100080000000     0.0240624  
C280     C      0.782940000000     0.269170000000     0.118190000000    -0.0660564  
C281     C      0.702160000000     0.668540000000     0.191340000000    -0.0635721  
C282     C      0.709000000000     0.714670000000     0.187380000000     0.022191   
C283     C      0.745280000000     0.727000000000     0.176980000000    -0.0634767  
C284     C      0.774370000000     0.694280000000     0.171050000000     0.0199939  
C285     C      0.767770000000     0.648360000000     0.175220000000    -0.095889   
C286     C      0.731180000000     0.635730000000     0.185290000000     0.0195406  
C287     C      0.678690000000     0.749930000000     0.194070000000     0.0218274  
C288     C      0.634290000000     0.741870000000     0.194210000000    -0.0624077  
C289     C      0.605890000000     0.775570000000     0.199960000000     0.0198422  
C290     C      0.621250000000     0.818200000000     0.205560000000    -0.092941   
C291     C      0.665560000000     0.826100000000     0.205710000000     0.0198149  
C292     C      0.693950000000     0.792310000000     0.200130000000    -0.0629631  
C293     C      0.097960000000     0.711690000000     0.127730000000    -0.0649042  
C294     C      0.071510000000     0.690380000000     0.114510000000     0.0235299  
C295     C      0.075760000000     0.702220000000     0.095660000000    -0.0673256  
C296     C      0.103820000000     0.736730000000     0.090300000000     0.0220868  
C297     C      0.127740000000     0.760390000000     0.103720000000    -0.101231   
C298     C      0.125620000000     0.746570000000     0.122400000000     0.0234894  
C299     C      0.036180000000     0.660310000000     0.120670000000     0.0229101  
C300     C      0.042620000000     0.627670000000     0.134660000000    -0.0624138  
C301     C      0.007820000000     0.603850000000     0.142070000000     0.0221847  
C302     C      0.965980000000     0.612650000000     0.135760000000    -0.0929326  
C303     C      0.959840000000     0.643920000000     0.121270000000     0.0212668  
C304     C      0.994550000000     0.667380000000     0.113790000000    -0.0621404  
C305     C      0.791730000000     0.386630000000     0.054060000000    -0.0627037  
C306     C      0.810240000000     0.427810000000     0.059470000000     0.0234115  
C307     C      0.818070000000     0.461280000000     0.046050000000    -0.0639088  
C308     C      0.805560000000     0.454520000000     0.027580000000     0.0219968  
C309     C      0.786440000000     0.413610000000     0.022120000000    -0.101063   
C310     C      0.780610000000     0.379240000000     0.035460000000     0.0287552  
C311     C      0.817890000000     0.437930000000     0.079250000000     0.0236443  
C312     C      0.783130000000     0.445910000000     0.091080000000    -0.0674494  
C313     C      0.790040000000     0.462510000000     0.109050000000     0.0221147  
C314     C      0.831850000000     0.470120000000     0.115580000000    -0.108469   
C315     C      0.866600000000     0.459910000000     0.103990000000     0.0242452  
C316     C      0.859650000000     0.444300000000     0.085900000000    -0.0692471  
C317     C      0.651340000000     0.682530000000     0.933990000000    -0.0637441  
C318     C      0.651150000000     0.727460000000     0.927440000000     0.0222885  
C319     C      0.682220000000     0.740650000000     0.914410000000    -0.0642659  
C320     C      0.714010000000     0.710540000000     0.908820000000     0.0208454  
C321     C      0.715320000000     0.666320000000     0.915970000000    -0.0980896  
C322     C      0.683040000000     0.652180000000     0.928250000000     0.0202307  
C323     C      0.620280000000     0.761270000000     0.934820000000     0.0226087  
C324     C      0.577400000000     0.749590000000     0.938360000000    -0.0641607  
C325     C      0.548810000000     0.781800000000     0.945310000000     0.0209089  
C326     C      0.562590000000     0.826290000000     0.948930000000    -0.0944757  
C327     C      0.605440000000     0.837850000000     0.945540000000     0.0195203  
C328     C      0.633920000000     0.805760000000     0.938610000000    -0.0633815  
C329     C      0.958110000000     0.719650000000     0.868280000000    -0.0642291  
C330     C      0.992520000000     0.728520000000     0.880410000000     0.022395   
C331     C      0.992480000000     0.708560000000     0.898190000000    -0.0642528  
C332     C      0.958700000000     0.680520000000     0.903730000000     0.0210223  
C333     C      0.924140000000     0.672090000000     0.891650000000    -0.0971822  
C334     C      0.924260000000     0.691840000000     0.873860000000     0.0225936  
C335     C      0.027570000000     0.759630000000     0.874700000000     0.0227414  
C336     C      0.044930000000     0.757590000000     0.856700000000    -0.0653893  
C337     C      0.076640000000     0.788270000000     0.851150000000     0.0223319  
C338     C      0.091400000000     0.821770000000     0.863470000000    -0.100819   
C339     C      0.074500000000     0.823380000000     0.881540000000     0.0228235  
C340     C      0.043040000000     0.792610000000     0.887100000000    -0.0652219  
C341     C      0.836370000000     0.479330000000     0.831050000000    -0.068992   
C342     C      0.797110000000     0.458830000000     0.826680000000     0.0251807  
C343     C      0.764890000000     0.457030000000     0.840230000000    -0.0656483  
C344     C      0.770970000000     0.477910000000     0.857470000000     0.0223508  
C345     C      0.809670000000     0.500090000000     0.861520000000    -0.106285   
C346     C      0.842830000000     0.499310000000     0.848390000000     0.0228277  
C347     C      0.788430000000     0.442850000000     0.307570000000     0.0244678  
C348     C      0.796350000000     0.471520000000     0.292340000000    -0.0637476  
C349     C      0.782710000000     0.459300000000     0.274530000000     0.0216755  
C350     C      0.762740000000     0.417370000000     0.271530000000    -0.100861   
C351     C      0.757290000000     0.387500000000     0.286550000000     0.0248077  
C352     C      0.769010000000     0.400660000000     0.304490000000    -0.0633777  
C353     C      0.200560000000     0.639150000000     0.148270000000    -0.0655905  
C354     C      0.199590000000     0.627330000000     0.129350000000     0.0226669  
C355     C      0.231380000000     0.644350000000     0.117490000000    -0.0641255  
C356     C      0.264540000000     0.671120000000     0.124570000000     0.0219777  
C357     C      0.266320000000     0.681600000000     0.143610000000    -0.0976372  
C358     C      0.233570000000     0.666150000000     0.155330000000     0.0220909  
C359     C      0.167630000000     0.594410000000     0.122320000000     0.0218771  
C360     C      0.159970000000     0.554320000000     0.132280000000    -0.0664176  
C361     C      0.132190000000     0.521530000000     0.125240000000     0.0214049  
C362     C      0.111200000000     0.528240000000     0.108160000000    -0.0961871  
C363     C      0.118070000000     0.568750000000     0.098330000000     0.0209271  
C364     C      0.146340000000     0.601460000000     0.105300000000    -0.0652191  
C365     C      0.148800000000     0.261200000000     0.082020000000    -0.0657781  
C366     C      0.167610000000     0.261770000000     0.064310000000     0.0228584  
C367     C      0.155630000000     0.295650000000     0.051580000000    -0.06544    
C368     C      0.126080000000     0.328860000000     0.056610000000     0.0229546  
C369     C      0.107550000000     0.328510000000     0.074370000000    -0.101026   
C370     C      0.118840000000     0.294090000000     0.086960000000     0.0229061  
C371     C      0.200590000000     0.227970000000     0.059280000000     0.0222378  
C372     C      0.234630000000     0.218710000000     0.071540000000    -0.0649134  
C373     C      0.266700000000     0.188220000000     0.066560000000     0.0224846  
C374     C      0.265100000000     0.165960000000     0.049320000000    -0.0987071  
C375     C      0.230700000000     0.174600000000     0.037180000000     0.0210843  
C376     C      0.198890000000     0.205560000000     0.042070000000    -0.065088   
C377     C      0.946170000000     0.440780000000     0.171170000000    -0.0617401  
C378     C      0.919930000000     0.403190000000     0.174700000000     0.0240286  
C379     C      0.908060000000     0.374690000000     0.159880000000    -0.0632819  
C380     C      0.924270000000     0.382140000000     0.142060000000     0.0247464  
C381     C      0.951760000000     0.418800000000     0.138690000000    -0.0956507  
C382     C      0.961650000000     0.448750000000     0.153280000000     0.030857   
C383     C      0.907850000000     0.391290000000     0.193960000000     0.0282616  
C384     C      0.939210000000     0.388740000000     0.207990000000    -0.0672433  
C385     C      0.928960000000     0.371380000000     0.225510000000     0.0266239  
C386     C      0.887050000000     0.357070000000     0.229340000000    -0.110019   
C387     C      0.855190000000     0.362100000000     0.215670000000     0.026284   
C388     C      0.865670000000     0.378770000000     0.198090000000    -0.0677265  
C389     C      0.857340000000     0.532470000000     0.991400000000    -0.0591982  
C390     C      0.884090000000     0.494380000000     0.992600000000     0.0273893  
C391     C      0.893820000000     0.470540000000     0.976230000000    -0.0651169  
C392     C      0.878790000000     0.485870000000     0.958950000000     0.0256344  
C393     C      0.854160000000     0.525530000000     0.957790000000    -0.098907   
C394     C      0.842670000000     0.547900000000     0.974220000000     0.0259722  
C395     C      0.904040000000     0.481970000000     0.010700000000     0.0177528  
C396     C      0.919030000000     0.516230000000     0.022640000000    -0.0648468  
C397     C      0.939210000000     0.505440000000     0.039370000000     0.0198361  
C398     C      0.945110000000     0.460120000000     0.044600000000    -0.100853   
C399     C      0.929260000000     0.425650000000     0.032970000000     0.0208082  
C400     C      0.909060000000     0.436480000000     0.016100000000    -0.0628252  
C401     C      0.189000000000     0.525140000000     0.861750000000    -0.0640268  
C402     C      0.180010000000     0.565120000000     0.871560000000     0.0229555  
C403     C      0.137180000000     0.575270000000     0.875790000000    -0.0640943  
C404     C      0.104260000000     0.545690000000     0.870670000000     0.022086   
C405     C      0.113490000000     0.505240000000     0.861300000000    -0.096264   
C406     C      0.156100000000     0.495450000000     0.856720000000     0.0211411  
C407     C      0.215200000000     0.595710000000     0.877620000000     0.0225333  
C408     C      0.254080000000     0.577890000000     0.884310000000    -0.0633634  
C409     C      0.287150000000     0.606640000000     0.890040000000     0.020141   
C410     C      0.281930000000     0.653780000000     0.889310000000    -0.0947349  
C411     C      0.243060000000     0.671660000000     0.882750000000     0.0217442  
C412     C      0.210100000000     0.642950000000     0.876920000000    -0.0635963  
C413     C      0.164300000000     0.168790000000     0.298170000000    -0.0652365  
C414     C      0.173450000000     0.198000000000     0.313070000000     0.0209674  
C415     C      0.215070000000     0.198650000000     0.820570000000    -0.0633992  
C416     C      0.246990000000     0.170950000000     0.813220000000     0.0208831  
C417     C      0.237770000000     0.141670000000     0.298380000000    -0.0933861  
C418     C      0.196040000000     0.140590000000     0.291010000000     0.0221516  
C419     C      0.140330000000     0.229190000000     0.820300000000     0.0213363  
C420     C      0.115020000000     0.254610000000     0.307950000000    -0.0657773  
C421     C      0.087130000000     0.287590000000     0.314660000000     0.023444   
C422     C      0.083680000000     0.295480000000     0.833850000000    -0.101561   
C423     C      0.107160000000     0.268360000000     0.846270000000     0.0223086  
C424     C      0.135430000000     0.235660000000     0.839540000000    -0.0671497  
C425     C      0.966240000000     0.392770000000     0.938430000000    -0.0672847  
C426     C      0.928720000000     0.367090000000     0.940370000000     0.022864   
C427     C      0.906280000000     0.353450000000     0.924340000000    -0.0644821  
C428     C      0.921830000000     0.364060000000     0.906640000000     0.0242343  
C429     C      0.960160000000     0.388420000000     0.904710000000    -0.103723   
C430     C      0.981770000000     0.403390000000     0.920770000000     0.0255304  
C431     C      0.914970000000     0.351180000000     0.958950000000     0.020924   
C432     C      0.944330000000     0.329520000000     0.970790000000    -0.066612   
C433     C      0.930550000000     0.309560000000     0.987330000000     0.0220191  
C434     C      0.887230000000     0.311220000000     0.992410000000    -0.102643   
C435     C      0.858290000000     0.335170000000     0.981110000000     0.0235562  
C436     C      0.872100000000     0.354800000000     0.964470000000    -0.0692783  
C437     C      0.928920000000     0.518230000000     0.243350000000    -0.066332   
C438     C      0.903140000000     0.486470000000     0.252650000000     0.0238722  
C439     C      0.869680000000     0.465340000000     0.242750000000    -0.0660544  
C440     C      0.861660000000     0.476520000000     0.224120000000     0.0249392  
C441     C      0.887470000000     0.508380000000     0.214950000000    -0.102065   
C442     C      0.921160000000     0.529060000000     0.224750000000     0.0225317  
C443     C      0.912590000000     0.474620000000     0.272370000000     0.0179101  
C444     C      0.911390000000     0.429350000000     0.278350000000    -0.0571502  
C445     C      0.926210000000     0.417430000000     0.296050000000     0.0222423  
C446     C      0.942190000000     0.450580000000     0.308210000000    -0.100907   
C447     C      0.941130000000     0.496160000000     0.302690000000     0.01749    
C448     C      0.926270000000     0.508080000000     0.284990000000    -0.0645085  
C449     C      0.058350000000     0.334090000000     0.340680000000     0.36559    
C450     C      0.964280000000     0.437170000000     0.825550000000     0.353286   
C451     C      0.979150000000     0.396300000000     0.386200000000     0.365323   
C452     C      0.079210000000     0.472220000000     0.357270000000     0.356741   
C453     C      0.077320000000     0.364420000000     0.579860000000     0.362945   
C454     C      0.970310000000     0.449500000000     0.561460000000     0.352715   
C455     C      0.973150000000     0.424000000000     0.620590000000     0.358137   
C456     C      0.081710000000     0.493250000000     0.601010000000     0.355585   
C457     C      0.752100000000     0.636710000000     0.411710000000     0.356887   
C458     C      0.842540000000     0.545710000000     0.439680000000     0.366832   
C459     C      0.814580000000     0.527000000000     0.378630000000     0.36007    
C460     C      0.888290000000     0.642510000000     0.397410000000     0.359791   
C461     C      0.799660000000     0.614140000000     0.669600000000     0.352142   
C462     C      0.878640000000     0.521950000000     0.695550000000     0.358836   
C463     C      0.839380000000     0.493990000000     0.633290000000     0.361923   
C464     C      0.928630000000     0.590810000000     0.644610000000     0.352871   
C465     C      0.902890000000     0.167680000000     0.546020000000     0.356116   
C466     C      0.825030000000     0.263460000000     0.569230000000     0.362704   
C467     C      0.872050000000     0.284610000000     0.508480000000     0.363172   
C468     C      0.772210000000     0.190650000000     0.520370000000     0.355478   
C469     C      0.924610000000     0.223160000000     0.784820000000     0.348491   
C470     C      0.837150000000     0.309790000000     0.809290000000     0.367033   
C471     C      0.877360000000     0.333060000000     0.746780000000     0.359226   
C472     C      0.792750000000     0.228040000000     0.761790000000     0.343967   
C473     C      0.672050000000     0.472100000000     0.459160000000     0.364016   
C474     C      0.769600000000     0.382960000000     0.442050000000     0.352544   
C475     C      0.767960000000     0.408640000000     0.503290000000     0.36104    
C476     C      0.658210000000     0.343890000000     0.480620000000     0.353444   
C477     C      0.635070000000     0.458620000000     0.716650000000     0.359165   
C478     C      0.739140000000     0.364880000000     0.696370000000     0.352728   
C479     C      0.742090000000     0.407250000000     0.753590000000     0.361585   
C480     C      0.631130000000     0.323980000000     0.732780000000     0.35792    
C481     C      0.447330000000     0.689170000000     0.414710000000     0.362216   
C482     C      0.356630000000     0.792640000000     0.432990000000     0.356435   
C483     C      0.400280000000     0.791040000000     0.373370000000     0.363805   
C484     C      0.317000000000     0.684340000000     0.394990000000     0.353152   
C485     C      0.302340000000     0.708260000000     0.651180000000     0.359523   
C486     C      0.386990000000     0.808660000000     0.633880000000     0.364961   
C487     C      0.348870000000     0.811670000000     0.694500000000     0.354842   
C488     C      0.424940000000     0.698530000000     0.676870000000     0.353415   
C489     C      0.526390000000     0.997660000000     0.476930000000     0.35396    
C490     C      0.443990000000     0.898450000000     0.501130000000     0.360591   
C491     C      0.421430000000     0.937610000000     0.439660000000     0.361722   
C492     C      0.532590000000     0.860790000000     0.456030000000     0.351332   
C493     C      0.574150000000     0.004780000000     0.719180000000     0.361611   
C494     C      0.502300000000     0.901360000000     0.749890000000     0.364829   
C495     C      0.482450000000     0.924900000000     0.686700000000     0.36133    
C496     C      0.591170000000     0.854870000000     0.710410000000     0.354441   
C497     C      0.434360000000     0.125570000000     0.526600000000     0.356635   
C498     C      0.342600000000     0.038920000000     0.501430000000     0.366134   
C499     C      0.378020000000     0.018960000000     0.562400000000     0.361414   
C500     C      0.299490000000     0.134400000000     0.543970000000     0.358255   
C501     C      0.271160000000     0.111630000000     0.790860000000     0.355836   
C502     C      0.334410000000     0.998900000000     0.808790000000     0.355832   
C503     C      0.315260000000     0.008310000000     0.746430000000     0.356356   
C504     C      0.396730000000     0.107940000000     0.769080000000     0.362774   
C505     C      0.127320000000     0.986590000000     0.334510000000     0.352943   
C506     C      0.234530000000     0.908030000000     0.818130000000     0.360171   
C507     C      0.223910000000     0.940410000000     0.378200000000     0.354264   
C508     C      0.123310000000     0.855810000000     0.357510000000     0.364336   
C509     C      0.129270000000     0.942400000000     0.584210000000     0.356134   
C510     C      0.236460000000     0.872060000000     0.557460000000     0.364835   
C511     C      0.240870000000     0.910170000000     0.617640000000     0.35434    
C512     C      0.151960000000     0.801510000000     0.598550000000     0.363826   
C513     C      0.266660000000     0.990360000000     0.699070000000    -0.0655319  
C514     C      0.298020000000     0.964700000000     0.690020000000     0.021584   
C515     C      0.334150000000     0.950260000000     0.700140000000    -0.0637352  
C516     C      0.339530000000     0.963060000000     0.718790000000     0.0225751  
C517     C      0.308570000000     0.989970000000     0.727570000000    -0.102602   
C518     C      0.271820000000     0.002750000000     0.717590000000     0.0214356  
C519     C      0.291390000000     0.952230000000     0.670250000000     0.020369   
C520     C      0.296080000000     0.907250000000     0.664430000000    -0.0625546  
C521     C      0.281500000000     0.893790000000     0.646880000000     0.0263312  
C522     C      0.262750000000     0.925350000000     0.634740000000    -0.103655   
C523     C      0.261080000000     0.971030000000     0.640010000000     0.0193814  
C524     C      0.275330000000     0.984350000000     0.657590000000    -0.0667553  
C525     C      0.301520000000     0.959720000000     0.463960000000    -0.0657384  
C526     C      0.303290000000     0.987990000000     0.448230000000     0.0238402  
C527     C      0.321910000000     0.031100000000     0.449950000000    -0.0645418  
C528     C      0.335890000000     0.046760000000     0.467170000000     0.02592    
C529     C      0.331790000000     0.019640000000     0.483100000000    -0.0987501  
C530     C      0.315840000000     0.975390000000     0.481290000000     0.0244914  
C531     C      0.283140000000     0.974550000000     0.430350000000     0.0228664  
C532     C      0.287310000000     0.930510000000     0.423180000000    -0.0635759  
C533     C      0.268640000000     0.919150000000     0.406040000000     0.0217395  
C534     C      0.245000000000     0.951520000000     0.396020000000    -0.100091   
C535     C      0.240370000000     0.995170000000     0.403360000000     0.0202989  
C536     C      0.259210000000     0.006540000000     0.420270000000    -0.0655639  
C537     C      0.366670000000     0.968970000000     0.610530000000    -0.0676782  
C538     C      0.409180000000     0.956940000000     0.614570000000     0.0254217  
C539     C      0.440140000000     0.960920000000     0.600510000000    -0.0653691  
C540     C      0.429370000000     0.978940000000     0.583200000000     0.023933   
C541     C      0.387430000000     0.993320000000     0.579540000000    -0.106742   
C542     C      0.355790000000     0.986790000000     0.593110000000     0.022013   
C543     C      0.422360000000     0.943640000000     0.633660000000     0.02362    
C544     C      0.407210000000     0.967470000000     0.649230000000    -0.0646204  
C545     C      0.425380000000     0.960230000000     0.666810000000     0.0201979  
C546     C      0.458200000000     0.928310000000     0.669130000000    -0.104412   
C547     C      0.470980000000     0.902240000000     0.653840000000     0.0219874  
C548     C      0.453770000000     0.910340000000     0.636280000000    -0.0658983  
C549     C      0.318180000000     0.985540000000     0.360350000000    -0.0670241  
C550     C      0.354850000000     0.961370000000     0.365590000000     0.0240639  
C551     C      0.382740000000     0.945840000000     0.351750000000    -0.0652675  
C552     C      0.375040000000     0.955860000000     0.333030000000     0.0229684  
C553     C      0.338680000000     0.980650000000     0.327810000000    -0.101899   
C554     C      0.309590000000     0.994170000000     0.341590000000     0.0212202  
C555     C      0.366080000000     0.954940000000     0.385410000000     0.0234198  
C556     C      0.371360000000     0.992470000000     0.397180000000    -0.064992   
C557     C      0.387930000000     0.986860000000     0.415160000000     0.0230909  
C558     C      0.398440000000     0.943510000000     0.421800000000    -0.105058   
C559     C      0.390950000000     0.905830000000     0.410290000000     0.0237083  
C560     C      0.375210000000     0.911550000000     0.392240000000    -0.0642068  
C561     C      0.282700000000     0.865800000000     0.732230000000    -0.0637853  
C562     C      0.311140000000     0.865360000000     0.747460000000     0.0236736  
C563     C      0.353140000000     0.849840000000     0.744720000000    -0.0638202  
C564     C      0.366260000000     0.834710000000     0.727210000000     0.022918   
C565     C      0.337250000000     0.833630000000     0.712220000000    -0.104229   
C566     C      0.295500000000     0.849770000000     0.714870000000     0.023226   
C567     C      0.296050000000     0.879230000000     0.766190000000     0.0226527  
C568     C      0.269000000000     0.916810000000     0.768090000000    -0.0672567  
C569     C      0.251150000000     0.927460000000     0.785270000000     0.0219122  
C570     C      0.258950000000     0.900060000000     0.800890000000    -0.100552   
C571     C      0.287170000000     0.863360000000     0.799270000000     0.019466   
C572     C      0.305890000000     0.853270000000     0.782080000000    -0.0675204  
C573     C      0.390370000000     0.900010000000     0.548410000000    -0.0631769  
C574     C      0.409760000000     0.862430000000     0.557090000000     0.0217593  
C575     C      0.436120000000     0.834330000000     0.546300000000    -0.0661014  
C576     C      0.445890000000     0.845540000000     0.527990000000     0.0212145  
C577     C      0.429010000000     0.884740000000     0.519780000000    -0.102621   
C578     C      0.400030000000     0.911160000000     0.529920000000     0.023669   
C579     C      0.404280000000     0.852790000000     0.577360000000     0.0233804  
C580     C      0.438130000000     0.833230000000     0.587560000000    -0.0658165  
C581     C      0.432670000000     0.820130000000     0.606020000000     0.0212409  
C582     C      0.393830000000     0.827860000000     0.615120000000    -0.101177   
C583     C      0.360640000000     0.849810000000     0.605420000000     0.0237991  
C584     C      0.365680000000     0.861920000000     0.586680000000    -0.0618439  
C585     C      0.314070000000     0.832600000000     0.520640000000    -0.063856   
C586     C      0.296030000000     0.851970000000     0.504500000000     0.0238021  
C587     C      0.260560000000     0.880740000000     0.506330000000    -0.0664354  
C588     C      0.242290000000     0.888240000000     0.523660000000     0.0266035  
C589     C      0.259070000000     0.867310000000     0.539640000000    -0.105198   
C590     C      0.295780000000     0.840310000000     0.538080000000     0.0232397  
C591     C      0.312320000000     0.840360000000     0.485710000000     0.0209544  
C592     C      0.356260000000     0.834140000000     0.482580000000    -0.0650652  
C593     C      0.371090000000     0.821060000000     0.465110000000     0.0245472  
C594     C      0.342110000000     0.813320000000     0.450470000000    -0.10002    
C595     C      0.298310000000     0.820530000000     0.453410000000     0.0181327  
C596     C      0.283560000000     0.833710000000     0.470850000000    -0.0670352  
C597     C      0.427110000000     0.888430000000     0.790670000000    -0.0641273  
C598     C      0.454350000000     0.868830000000     0.804070000000     0.0225804  
C599     C      0.497370000000     0.861050000000     0.799550000000    -0.0652525  
C600     C      0.512770000000     0.871930000000     0.781960000000     0.0247051  
C601     C      0.485490000000     0.890790000000     0.768480000000    -0.101662   
C602     C      0.442680000000     0.899620000000     0.773040000000     0.0230055  
C603     C      0.437890000000     0.853950000000     0.322360000000     0.0219309  
C604     C      0.462540000000     0.860110000000     0.338600000000    -0.0682288  
C605     C      0.449390000000     0.841320000000     0.355470000000     0.0216844  
C606     C      0.411620000000     0.815740000000     0.356320000000    -0.106201   
C607     C      0.386070000000     0.811180000000     0.340310000000     0.0245593  
C608     C      0.398980000000     0.830300000000     0.323500000000    -0.0658906  
C609     C      0.530350000000     0.642140000000     0.688810000000    -0.063376   
C610     C      0.516590000000     0.600290000000     0.695980000000     0.0216077  
C611     C      0.472470000000     0.591410000000     0.697090000000    -0.0635222  
C612     C      0.442740000000     0.623410000000     0.690930000000     0.019907   
C613     C      0.456490000000     0.665100000000     0.683650000000    -0.0960307  
C614     C      0.500580000000     0.674330000000     0.682790000000     0.0202038  
C615     C      0.548070000000     0.565400000000     0.701790000000     0.0228152  
C616     C      0.583440000000     0.555550000000     0.690500000000    -0.0654403  
C617     C      0.611860000000     0.521070000000     0.695430000000     0.0217093  
C618     C      0.605760000000     0.496040000000     0.711840000000    -0.0999739  
C619     C      0.571010000000     0.506540000000     0.723360000000     0.0217981  
C620     C      0.542300000000     0.540740000000     0.718330000000    -0.0651051  
C621     C      0.545400000000     0.233860000000     0.728170000000    -0.0652878  
C622     C      0.537350000000     0.223190000000     0.746910000000     0.021441   
C623     C      0.561680000000     0.244590000000     0.760840000000    -0.0666527  
C624     C      0.592480000000     0.276910000000     0.756180000000     0.0193791  
C625     C      0.599750000000     0.288400000000     0.737490000000    -0.0996357  
C626     C      0.576360000000     0.266120000000     0.723500000000     0.0205981  
C627     C      0.502120000000     0.191860000000     0.752030000000     0.0226775  
C628     C      0.462110000000     0.195210000000     0.743130000000    -0.0647477  
C629     C      0.427970000000     0.167860000000     0.748680000000     0.0229923  
C630     C      0.433100000000     0.136540000000     0.763230000000    -0.100358   
C631     C      0.473260000000     0.132560000000     0.771940000000     0.0225665  
C632     C      0.507450000000     0.159990000000     0.766400000000    -0.0652649  
C633     C      0.552490000000     0.625660000000     0.415490000000    -0.067074   
C634     C      0.552340000000     0.607060000000     0.433510000000     0.0208258  
C635     C      0.518100000000     0.616960000000     0.445410000000    -0.0665249  
C636     C      0.484200000000     0.643890000000     0.439300000000     0.0219148  
C637     C      0.483870000000     0.661660000000     0.421180000000    -0.100275   
C638     C      0.518590000000     0.652830000000     0.409400000000     0.0207991  
C639     C      0.586330000000     0.575260000000     0.439580000000     0.0216936  
C640     C      0.600010000000     0.540680000000     0.427630000000    -0.0641675  
C641     C      0.628670000000     0.507810000000     0.433900000000     0.0245275  
C642     C      0.644460000000     0.508980000000     0.452220000000    -0.0989385  
C643     C      0.632270000000     0.544590000000     0.463950000000     0.0229751  
C644     C      0.603300000000     0.577330000000     0.457710000000    -0.0670719  
C645     C      0.513330000000     0.222200000000     0.524440000000    -0.065015   
C646     C      0.533970000000     0.214000000000     0.507400000000     0.0214958  
C647     C      0.523710000000     0.174260000000     0.497540000000    -0.0647311  
C648     C      0.492580000000     0.144450000000     0.504230000000     0.0218188  
C649     C      0.470660000000     0.154040000000     0.520760000000    -0.0985158  
C650     C      0.481720000000     0.192800000000     0.530930000000     0.0214568  
C651     C      0.565200000000     0.247390000000     0.499840000000     0.0220552  
C652     C      0.559400000000     0.294070000000     0.502820000000    -0.063704   
C653     C      0.589270000000     0.325440000000     0.496320000000     0.0205793  
C654     C      0.625510000000     0.310930000000     0.486580000000    -0.094839   
C655     C      0.630900000000     0.264530000000     0.483120000000     0.0219072  
C656     C      0.600960000000     0.233140000000     0.489590000000    -0.0647357  
C657     C      0.012800000000     0.169130000000     0.313510000000    -0.0636118  
C658     C      0.017700000000     0.127160000000     0.804500000000     0.0212747  
C659     C      0.994090000000     0.118930000000     0.788130000000    -0.0636518  
C660     C      0.964760000000     0.150700000000     0.781480000000     0.0196247  
C661     C      0.958650000000     0.191730000000     0.790890000000    -0.0946285  
C662     C      0.983650000000     0.201130000000     0.306730000000     0.0193061  
C663     C      0.045960000000     0.091340000000     0.312440000000     0.0223646  
C664     C      0.084890000000     0.102410000000     0.321250000000    -0.0643824  
C665     C      0.111330000000     0.068450000000     0.328490000000     0.0217291  
C666     C      0.099230000000     0.022700000000     0.327200000000    -0.0934449  
C667     C      0.060170000000     0.011620000000     0.818630000000     0.0199312  
C668     C      0.033810000000     0.045490000000     0.811390000000    -0.0632868  
C669     C      0.620140000000     0.108990000000     0.742330000000    -0.0642611  
C670     C      0.656960000000     0.116570000000     0.731590000000     0.0235727  
C671     C      0.662770000000     0.091120000000     0.715280000000    -0.0652102  
C672     C      0.634280000000     0.056440000000     0.710610000000     0.0226423  
C673     C      0.599390000000     0.046510000000     0.722160000000    -0.100938   
C674     C      0.591650000000     0.074180000000     0.737670000000     0.0222663  
C675     C      0.691450000000     0.147060000000     0.738410000000     0.0220252  
C676     C      0.682120000000     0.189010000000     0.746660000000    -0.0624779  
C677     C      0.714980000000     0.215830000000     0.754150000000     0.0190722  
C678     C      0.757660000000     0.200870000000     0.753640000000    -0.090223   
C679     C      0.766920000000     0.159250000000     0.745190000000     0.0179808  
C680     C      0.734260000000     0.132700000000     0.737680000000    -0.0624953  
C681     C      0.815090000000     0.399070000000     0.393880000000    -0.0644999  
C682     C      0.811810000000     0.354900000000     0.386700000000     0.0216843  
C683     C      0.800490000000     0.319520000000     0.398860000000    -0.0664562  
C684     C      0.788980000000     0.328550000000     0.417170000000     0.0197965  
C685     C      0.789270000000     0.373060000000     0.423910000000    -0.101758   
C686     C      0.803900000000     0.408110000000     0.412330000000     0.0228387  
C687     C      0.817630000000     0.345580000000     0.366510000000     0.0233458  
C688     C      0.791930000000     0.312710000000     0.357720000000    -0.066315   
C689     C      0.797970000000     0.301870000000     0.339080000000     0.0228169  
C690     C      0.829180000000     0.324280000000     0.328580000000    -0.104388   
C691     C      0.853720000000     0.358600000000     0.336980000000     0.0257036  
C692     C      0.848190000000     0.369010000000     0.355830000000    -0.0619515  
C693     C      0.020360000000     0.996040000000     0.576950000000    -0.0636674  
C694     C      0.031510000000     0.038970000000     0.569960000000     0.0224016  
C695     C      0.075090000000     0.050190000000     0.568310000000    -0.0638298  
C696     C      0.106730000000     0.019070000000     0.573290000000     0.0217424  
C697     C      0.095570000000     0.975990000000     0.580020000000    -0.0953926  
C698     C      0.052080000000     0.964870000000     0.581930000000     0.0201099  
C699     C      0.997970000000     0.071790000000     0.564120000000     0.0227024  
C700     C      0.961480000000     0.057190000000     0.554260000000    -0.063703   
C701     C      0.930550000000     0.088290000000     0.548360000000     0.0206198  
C702     C      0.935450000000     0.134620000000     0.552200000000    -0.0966475  
C703     C      0.971740000000     0.149210000000     0.562140000000     0.021473   
C704     C      0.002630000000     0.118170000000     0.568040000000    -0.0640566  
C705     C      0.701110000000     0.112810000000     0.492020000000    -0.063823   
C706     C      0.660560000000     0.120710000000     0.499800000000     0.0212226  
C707     C      0.656950000000     0.153080000000     0.514040000000    -0.0658634  
C708     C      0.693010000000     0.176760000000     0.520370000000     0.0217701  
C709     C      0.733580000000     0.168030000000     0.512830000000    -0.09582    
C710     C      0.737180000000     0.136090000000     0.498490000000     0.0212097  
C711     C      0.622800000000     0.093720000000     0.493570000000     0.0196355  
C712     C      0.617550000000     0.082060000000     0.474720000000    -0.0652882  
C713     C      0.585030000000     0.052340000000     0.469170000000     0.0196306  
C714     C      0.556920000000     0.033750000000     0.482330000000    -0.0954709  
C715     C      0.560600000000     0.047290000000     0.501000000000     0.0185512  
C716     C      0.593190000000     0.076940000000     0.506560000000    -0.0626572  
C717     C      0.787630000000     0.293160000000     0.658640000000    -0.0661186  
C718     C      0.791900000000     0.324750000000     0.644090000000     0.0209059  
C719     C      0.783200000000     0.370540000000     0.647660000000    -0.0654191  
C720     C      0.767880000000     0.383980000000     0.665000000000     0.0198682  
C721     C      0.760930000000     0.351810000000     0.679090000000    -0.101107   
C722     C      0.772020000000     0.306520000000     0.675930000000     0.0202307  
C723     C      0.801590000000     0.309290000000     0.624920000000     0.0231785  
C724     C      0.827670000000     0.334980000000     0.612960000000    -0.0659896  
C725     C      0.835250000000     0.320460000000     0.594750000000     0.0224857  
C726     C      0.816620000000     0.280190000000     0.588170000000    -0.103117   
C727     C      0.790460000000     0.254760000000     0.600080000000     0.0241234  
C728     C      0.782940000000     0.269170000000     0.618190000000    -0.0660626  
C729     C      0.702160000000     0.668540000000     0.691340000000    -0.0637049  
C730     C      0.709000000000     0.714670000000     0.687380000000     0.0222911  
C731     C      0.745280000000     0.727010000000     0.676980000000    -0.063592   
C732     C      0.774360000000     0.694280000000     0.671050000000     0.0201356  
C733     C      0.767770000000     0.648360000000     0.675220000000    -0.0959875  
C734     C      0.731180000000     0.635740000000     0.685290000000     0.0196675  
C735     C      0.678690000000     0.749930000000     0.694070000000     0.0217565  
C736     C      0.634280000000     0.741880000000     0.694210000000    -0.0623612  
C737     C      0.605890000000     0.775580000000     0.699960000000     0.0198348  
C738     C      0.621250000000     0.818200000000     0.705570000000    -0.0929062  
C739     C      0.665560000000     0.826110000000     0.705710000000     0.0197504  
C740     C      0.693950000000     0.792310000000     0.700130000000    -0.0629101  
C741     C      0.097960000000     0.711700000000     0.627730000000    -0.0648411  
C742     C      0.071510000000     0.690380000000     0.614510000000     0.023458   
C743     C      0.075750000000     0.702220000000     0.595660000000    -0.0671811  
C744     C      0.103820000000     0.736730000000     0.590290000000     0.021964   
C745     C      0.127740000000     0.760390000000     0.603720000000    -0.101074   
C746     C      0.125620000000     0.746570000000     0.622400000000     0.0234327  
C747     C      0.036180000000     0.660310000000     0.620670000000     0.0230181  
C748     C      0.042620000000     0.627670000000     0.634650000000    -0.062449   
C749     C      0.007820000000     0.603850000000     0.642060000000     0.0221886  
C750     C      0.965980000000     0.612650000000     0.635750000000    -0.0928981  
C751     C      0.959850000000     0.643920000000     0.621270000000     0.0214049  
C752     C      0.994550000000     0.667390000000     0.613780000000    -0.0622911  
C753     C      0.791740000000     0.386630000000     0.554060000000    -0.0632803  
C754     C      0.810230000000     0.427810000000     0.559470000000     0.0239898  
C755     C      0.818070000000     0.461280000000     0.546050000000    -0.0644913  
C756     C      0.805560000000     0.454520000000     0.527580000000     0.0234857  
C757     C      0.786430000000     0.413610000000     0.522120000000    -0.103261   
C758     C      0.780610000000     0.379240000000     0.535460000000     0.0302402  
C759     C      0.817890000000     0.437930000000     0.579250000000     0.0234664  
C760     C      0.783130000000     0.445920000000     0.591080000000    -0.0672866  
C761     C      0.790040000000     0.462510000000     0.609050000000     0.0221398  
C762     C      0.831850000000     0.470120000000     0.615580000000    -0.108493   
C763     C      0.866600000000     0.459910000000     0.603990000000     0.02422    
C764     C      0.859650000000     0.444300000000     0.585900000000    -0.0691417  
C765     C      0.651340000000     0.682530000000     0.433990000000    -0.0637732  
C766     C      0.651150000000     0.727460000000     0.427440000000     0.0221968  
C767     C      0.682220000000     0.740650000000     0.414410000000    -0.0642547  
C768     C      0.714010000000     0.710540000000     0.408820000000     0.0207302  
C769     C      0.715310000000     0.666320000000     0.415970000000    -0.098004   
C770     C      0.683040000000     0.652180000000     0.428250000000     0.0201292  
C771     C      0.620280000000     0.761280000000     0.434820000000     0.0225746  
C772     C      0.577390000000     0.749590000000     0.438360000000    -0.0642657  
C773     C      0.548800000000     0.781800000000     0.445310000000     0.0208747  
C774     C      0.562590000000     0.826290000000     0.448930000000    -0.0947593  
C775     C      0.605440000000     0.837850000000     0.445540000000     0.0195004  
C776     C      0.633920000000     0.805760000000     0.438610000000    -0.0635217  
C777     C      0.958110000000     0.719650000000     0.368280000000    -0.0642178  
C778     C      0.992520000000     0.728520000000     0.380410000000     0.0223563  
C779     C      0.992480000000     0.708560000000     0.398190000000    -0.0643062  
C780     C      0.958700000000     0.680520000000     0.403730000000     0.020968   
C781     C      0.924140000000     0.672080000000     0.391650000000    -0.0972447  
C782     C      0.924250000000     0.691840000000     0.373860000000     0.0225636  
C783     C      0.027570000000     0.759630000000     0.374710000000     0.0227472  
C784     C      0.044920000000     0.757590000000     0.356700000000    -0.0653962  
C785     C      0.076630000000     0.788270000000     0.351150000000     0.0223496  
C786     C      0.091390000000     0.821760000000     0.363470000000    -0.100826   
C787     C      0.074500000000     0.823370000000     0.381540000000     0.0228189  
C788     C      0.043040000000     0.792600000000     0.387110000000    -0.0653778  
C789     C      0.836360000000     0.479330000000     0.331050000000    -0.068931   
C790     C      0.797110000000     0.458830000000     0.326680000000     0.0251788  
C791     C      0.764890000000     0.457030000000     0.340230000000    -0.0656607  
C792     C      0.770970000000     0.477920000000     0.357470000000     0.0224017  
C793     C      0.809660000000     0.500090000000     0.361520000000    -0.106282   
C794     C      0.842830000000     0.499310000000     0.348390000000     0.0227814  
C795     C      0.788430000000     0.442850000000     0.807570000000     0.0244101  
C796     C      0.796350000000     0.471520000000     0.792340000000    -0.063676   
C797     C      0.782710000000     0.459300000000     0.774530000000     0.0215662  
C798     C      0.762740000000     0.417370000000     0.771530000000    -0.100709   
C799     C      0.757300000000     0.387500000000     0.786550000000     0.0247336  
C800     C      0.769010000000     0.400660000000     0.804490000000    -0.0633415  
C801     C      0.200550000000     0.639150000000     0.648270000000    -0.0656162  
C802     C      0.199590000000     0.627330000000     0.629350000000     0.0227183  
C803     C      0.231380000000     0.644350000000     0.617490000000    -0.0641438  
C804     C      0.264540000000     0.671120000000     0.624570000000     0.0220664  
C805     C      0.266320000000     0.681600000000     0.643610000000    -0.097746   
C806     C      0.233560000000     0.666150000000     0.655330000000     0.0221144  
C807     C      0.167630000000     0.594420000000     0.622320000000     0.0218287  
C808     C      0.159970000000     0.554320000000     0.632280000000    -0.0663548  
C809     C      0.132180000000     0.521530000000     0.625240000000     0.0213642  
C810     C      0.111200000000     0.528240000000     0.608160000000    -0.0960614  
C811     C      0.118070000000     0.568750000000     0.598330000000     0.0209182  
C812     C      0.146340000000     0.601450000000     0.605300000000    -0.0650985  
C813     C      0.148800000000     0.261200000000     0.582020000000    -0.0656851  
C814     C      0.167610000000     0.261770000000     0.564300000000     0.0228942  
C815     C      0.155620000000     0.295650000000     0.551580000000    -0.0652975  
C816     C      0.126080000000     0.328860000000     0.556610000000     0.0230433  
C817     C      0.107550000000     0.328510000000     0.574370000000    -0.100868   
C818     C      0.118840000000     0.294090000000     0.586960000000     0.0228793  
C819     C      0.200590000000     0.227970000000     0.559280000000     0.0223321  
C820     C      0.234620000000     0.218710000000     0.571540000000    -0.0648434  
C821     C      0.266700000000     0.188220000000     0.566560000000     0.0224902  
C822     C      0.265100000000     0.165960000000     0.549320000000    -0.0985361  
C823     C      0.230690000000     0.174600000000     0.537180000000     0.0211926  
C824     C      0.198880000000     0.205560000000     0.542070000000    -0.0649445  
C825     C      0.946170000000     0.440780000000     0.671170000000    -0.061735   
C826     C      0.919930000000     0.403190000000     0.674700000000     0.0240265  
C827     C      0.908050000000     0.374690000000     0.659880000000    -0.0633325  
C828     C      0.924260000000     0.382150000000     0.642060000000     0.0247745  
C829     C      0.951760000000     0.418800000000     0.638690000000    -0.095681   
C830     C      0.961650000000     0.448750000000     0.653280000000     0.0308591  
C831     C      0.907840000000     0.391300000000     0.693960000000     0.0282559  
C832     C      0.939210000000     0.388750000000     0.707990000000    -0.0672517  
C833     C      0.928960000000     0.371380000000     0.725510000000     0.0265854  
C834     C      0.887050000000     0.357080000000     0.729340000000    -0.109972   
C835     C      0.855190000000     0.362110000000     0.715670000000     0.0262721  
C836     C      0.865670000000     0.378770000000     0.698090000000    -0.0677479  
C837     C      0.857340000000     0.532470000000     0.491400000000    -0.0628872  
C838     C      0.884080000000     0.494390000000     0.492600000000     0.0247477  
C839     C      0.893810000000     0.470540000000     0.476230000000    -0.0647242  
C840     C      0.878780000000     0.485870000000     0.458950000000     0.0255353  
C841     C      0.854150000000     0.525540000000     0.457790000000    -0.0994811  
C842     C      0.842660000000     0.547900000000     0.474220000000     0.0271288  
C843     C      0.904030000000     0.481970000000     0.510700000000     0.0213014  
C844     C      0.919030000000     0.516230000000     0.522640000000    -0.0658491  
C845     C      0.939200000000     0.505440000000     0.539370000000     0.0205921  
C846     C      0.945100000000     0.460130000000     0.544590000000    -0.101009   
C847     C      0.929260000000     0.425650000000     0.532970000000     0.0215852  
C848     C      0.909060000000     0.436480000000     0.516100000000    -0.0637959  
C849     C      0.189010000000     0.525130000000     0.361750000000    -0.0640677  
C850     C      0.180010000000     0.565120000000     0.371560000000     0.0229332  
C851     C      0.137180000000     0.575270000000     0.375790000000    -0.0641505  
C852     C      0.104260000000     0.545690000000     0.370670000000     0.0220272  
C853     C      0.113490000000     0.505230000000     0.361300000000    -0.0962728  
C854     C      0.156110000000     0.495440000000     0.356720000000     0.0211057  
C855     C      0.215200000000     0.595710000000     0.377620000000     0.0224825  
C856     C      0.254080000000     0.577880000000     0.384310000000    -0.063372   
C857     C      0.287160000000     0.606640000000     0.390040000000     0.020028   
C858     C      0.281930000000     0.653770000000     0.389310000000    -0.094706   
C859     C      0.243060000000     0.671660000000     0.382750000000     0.0216765  
C860     C      0.210100000000     0.642950000000     0.376920000000    -0.0636339  
C861     C      0.164300000000     0.168800000000     0.798160000000    -0.0652229  
C862     C      0.173450000000     0.198010000000     0.813070000000     0.0209559  
C863     C      0.215080000000     0.198640000000     0.320580000000    -0.0634277  
C864     C      0.246990000000     0.170940000000     0.313230000000     0.0208848  
C865     C      0.237760000000     0.141670000000     0.798370000000    -0.0934297  
C866     C      0.196040000000     0.140590000000     0.791000000000     0.02214    
C867     C      0.140340000000     0.229180000000     0.320310000000     0.0213745  
C868     C      0.115010000000     0.254620000000     0.807950000000    -0.0656902  
C869     C      0.087130000000     0.287600000000     0.814660000000     0.0234295  
C870     C      0.083670000000     0.295460000000     0.333860000000    -0.101692   
C871     C      0.107160000000     0.268350000000     0.346270000000     0.0224833  
C872     C      0.135430000000     0.235660000000     0.339550000000    -0.0672487  
C873     C      0.966230000000     0.392770000000     0.438430000000    -0.0672194  
C874     C      0.928720000000     0.367090000000     0.440370000000     0.0225409  
C875     C      0.906280000000     0.353450000000     0.424340000000    -0.0643515  
C876     C      0.921830000000     0.364050000000     0.406640000000     0.0241436  
C877     C      0.960160000000     0.388420000000     0.404710000000    -0.103785   
C878     C      0.981760000000     0.403400000000     0.420770000000     0.0254332  
C879     C      0.914960000000     0.351180000000     0.458950000000     0.0214589  
C880     C      0.944320000000     0.329520000000     0.470790000000    -0.0676847  
C881     C      0.930550000000     0.309560000000     0.487330000000     0.0231411  
C882     C      0.887220000000     0.311220000000     0.492410000000    -0.107112   
C883     C      0.858280000000     0.335170000000     0.481110000000     0.0247439  
C884     C      0.872100000000     0.354810000000     0.464470000000    -0.0703031  
C885     C      0.928930000000     0.518230000000     0.743350000000    -0.066399   
C886     C      0.903150000000     0.486470000000     0.752650000000     0.0238833  
C887     C      0.869680000000     0.465340000000     0.742750000000    -0.0661011  
C888     C      0.861660000000     0.476530000000     0.724120000000     0.0249458  
C889     C      0.887470000000     0.508380000000     0.714950000000    -0.102041   
C890     C      0.921170000000     0.529050000000     0.724750000000     0.0225146  
C891     C      0.912590000000     0.474620000000     0.772370000000     0.0178874  
C892     C      0.911390000000     0.429360000000     0.778350000000    -0.0571411  
C893     C      0.926210000000     0.417430000000     0.796050000000     0.0222016  
C894     C      0.942180000000     0.450590000000     0.808210000000    -0.100943   
C895     C      0.941130000000     0.496170000000     0.802690000000     0.0174819  
C896     C      0.926270000000     0.508090000000     0.784990000000    -0.0645152  
H1       H      0.358430000000     0.929710000000     0.193590000000     0.0500266  
H2       H      0.368140000000     0.952620000000     0.226200000000     0.0443565  
H3       H      0.247210000000     0.023190000000     0.223990000000     0.0417583  
H4       H      0.237860000000     0.000830000000     0.191810000000     0.0486909  
H5       H      0.308360000000     0.882030000000     0.173890000000     0.0542822  
H6       H      0.282460000000     0.858270000000     0.143260000000     0.0485722  
H7       H      0.247170000000     0.996210000000     0.130850000000     0.039153   
H8       H      0.272130000000     0.019530000000     0.161580000000     0.0475772  
H9       H      0.324840000000     0.053270000000     0.938010000000     0.0464621  
H10      H      0.348940000000     0.080700000000     0.968050000000     0.0427581  
H11      H      0.313120000000     0.953620000000     0.993340000000     0.0415146  
H12      H      0.287230000000     0.926450000000     0.963030000000     0.0481209  
H13      H      0.305690000000     0.905210000000     0.930620000000     0.0505661  
H14      H      0.272590000000     0.885170000000     0.900700000000     0.0396213  
H15      H      0.222130000000     0.020780000000     0.896020000000     0.0411495  
H16      H      0.254500000000     0.040460000000     0.925580000000     0.0481137  
H17      H      0.473280000000     0.952300000000     0.103150000000     0.0484356  
H18      H      0.454330000000     0.983200000000     0.072930000000     0.0395701  
H19      H      0.323070000000     0.997240000000     0.090590000000     0.0369542  
H20      H      0.342110000000     0.965580000000     0.120980000000     0.0509078  
H21      H      0.383280000000     0.993690000000     0.147670000000     0.048863   
H22      H      0.415000000000     0.980840000000     0.178380000000     0.037141   
H23      H      0.496130000000     0.877240000000     0.155190000000     0.0421374  
H24      H      0.466420000000     0.891680000000     0.124630000000     0.0488745  
H25      H      0.411780000000     0.928280000000     0.855570000000     0.052279   
H26      H      0.398370000000     0.945930000000     0.822760000000     0.0378215  
H27      H      0.281600000000     0.014030000000     0.838020000000     0.0383855  
H28      H      0.296860000000     0.998930000000     0.870770000000     0.0490827  
H29      H      0.364660000000     0.026320000000     0.892160000000     0.0483858  
H30      H      0.393780000000     0.016530000000     0.923630000000     0.0366958  
H31      H      0.398900000000     0.872030000000     0.914960000000     0.0424516  
H32      H      0.370890000000     0.882200000000     0.883430000000     0.0505282  
H33      H      0.375640000000     0.848740000000     0.256180000000     0.0487348  
H34      H      0.398590000000     0.822160000000     0.225610000000     0.0392958  
H35      H      0.272370000000     0.849240000000     0.203600000000     0.0383388  
H36      H      0.249960000000     0.877010000000     0.233870000000     0.0494283  
H37      H      0.260600000000     0.937390000000     0.256170000000     0.0467821  
H38      H      0.229570000000     0.956050000000     0.286060000000     0.0419618  
H39      H      0.293860000000     0.841800000000     0.811130000000     0.0363286  
H40      H      0.326410000000     0.823900000000     0.281070000000     0.0464488  
H41      H      0.449940000000     0.803750000000     0.052050000000     0.0471417  
H42      H      0.467420000000     0.823770000000     0.020360000000     0.0387435  
H43      H      0.386020000000     0.941170000000     0.023790000000     0.0439559  
H44      H      0.368770000000     0.921600000000     0.055980000000     0.050737   
H45      H      0.469000000000     0.827370000000     0.081250000000     0.0470342  
H46      H      0.459000000000     0.803670000000     0.113170000000     0.0383608  
H47      H      0.330240000000     0.856010000000     0.112080000000     0.0467742  
H48      H      0.338900000000     0.877070000000     0.079410000000     0.0557389  
H49      H      0.246490000000     0.897160000000     0.994300000000     0.0490948  
H50      H      0.214380000000     0.909820000000     0.024480000000     0.0400136  
H51      H      0.309470000000     0.823930000000     0.050210000000     0.0364475  
H52      H      0.341280000000     0.810090000000     0.019770000000     0.0484493  
H53      H      0.379110000000     0.838390000000     0.993720000000     0.0486147  
H54      H      0.405040000000     0.815270000000     0.963290000000     0.0452013  
H55      H      0.275200000000     0.814570000000     0.942400000000     0.039905   
H56      H      0.249400000000     0.837310000000     0.972780000000     0.0484263  
H57      H      0.518960000000     0.845300000000     0.809440000000     0.0488047  
H58      H      0.545980000000     0.864870000000     0.278850000000     0.0403933  
H59      H      0.421260000000     0.915040000000     0.262990000000     0.0424376  
H60      H      0.393850000000     0.895150000000     0.293810000000     0.0501877  
H61      H      0.492340000000     0.878870000000     0.838180000000     0.0481588  
H62      H      0.469490000000     0.845510000000     0.867670000000     0.0368403  
H63      H      0.356600000000     0.791790000000     0.840670000000     0.039814   
H64      H      0.379510000000     0.824680000000     0.311220000000     0.0460408  
H65      H      0.460930000000     0.559270000000     0.202360000000     0.0480269  
H66      H      0.408970000000     0.615370000000     0.191790000000     0.0404235  
H67      H      0.512140000000     0.706260000000     0.177310000000     0.0418867  
H68      H      0.564140000000     0.650020000000     0.187930000000     0.0446199  
H69      H      0.588540000000     0.573740000000     0.177600000000     0.0483259  
H70      H      0.638480000000     0.513840000000     0.186310000000     0.042131   
H71      H      0.565600000000     0.487860000000     0.236120000000     0.0391172  
H72      H      0.515580000000     0.547920000000     0.227400000000     0.0483454  
H73      H      0.556010000000     0.237410000000     0.275400000000     0.0478774  
H74      H      0.610220000000     0.293320000000     0.267260000000     0.0407001  
H75      H      0.581540000000     0.274060000000     0.208970000000     0.0399755  
H76      H      0.527500000000     0.217490000000     0.217130000000     0.0484183  
H77      H      0.456810000000     0.219850000000     0.232190000000     0.0483811  
H78      H      0.397410000000     0.171600000000     0.241670000000     0.0401111  
H79      H      0.478250000000     0.108380000000     0.283070000000     0.0410026  
H80      H      0.538070000000     0.156270000000     0.273350000000     0.0456737  
H81      H      0.516830000000     0.602730000000     0.959290000000     0.0489466  
H82      H      0.458000000000     0.650370000000     0.948730000000     0.0412259  
H83      H      0.519370000000     0.666470000000     0.895410000000     0.0396646  
H84      H      0.578760000000     0.619100000000     0.906100000000     0.0493315  
H85      H      0.587270000000     0.537960000000     0.913640000000     0.0495416  
H86      H      0.637750000000     0.480890000000     0.924510000000     0.0412707  
H87      H      0.644210000000     0.546510000000     0.978100000000     0.0403345  
H88      H      0.593790000000     0.603990000000     0.967150000000     0.0466123  
H89      H      0.538580000000     0.166780000000     0.984340000000     0.045857   
H90      H      0.484500000000     0.114820000000     0.996060000000     0.0474047  
H91      H      0.465580000000     0.200700000000     0.043830000000     0.0406431  
H92      H      0.521280000000     0.251590000000     0.032750000000     0.0453757  
H93      H      0.531600000000     0.306610000000     0.010100000000     0.050144   
H94      H      0.584090000000     0.361050000000     0.999050000000     0.0393438  
H95      H      0.658570000000     0.252350000000     0.975620000000     0.042816   
H96      H      0.606400000000     0.197670000000     0.986820000000     0.0505496  
H97      H      0.997890000000     0.087630000000     0.280510000000     0.0476283  
H98      H      0.946320000000     0.142740000000     0.269110000000     0.0424849  
H99      H      0.979720000000     0.232590000000     0.814240000000     0.0413205  
H100     H      0.030290000000     0.176720000000     0.826160000000     0.049121   
H101     H      0.095250000000     0.137260000000     0.822360000000     0.0482529  
H102     H      0.141340000000     0.078050000000     0.834990000000     0.0436483  
H103     H      0.049830000000     0.976690000000     0.317540000000     0.0409584  
H104     H      0.003580000000     0.035640000000     0.305180000000     0.0478984  
H105     H      0.690350000000     0.096840000000     0.206510000000     0.0483175  
H106     H      0.640810000000     0.036010000000     0.198460000000     0.0403724  
H107     H      0.564740000000     0.067570000000     0.246740000000     0.0399044  
H108     H      0.614680000000     0.128040000000     0.254950000000     0.0471495  
H109     H      0.649460000000     0.200950000000     0.247350000000     0.0506028  
H110     H      0.706940000000     0.247970000000     0.260450000000     0.0462175  
H111     H      0.799480000000     0.146810000000     0.244560000000     0.0437077  
H112     H      0.742520000000     0.100190000000     0.231760000000     0.0480917  
H113     H      0.799420000000     0.284760000000     0.894120000000     0.0479367  
H114     H      0.778580000000     0.300710000000     0.925890000000     0.0411029  
H115     H      0.804620000000     0.442770000000     0.917210000000     0.0430919  
H116     H      0.824490000000     0.426960000000     0.885080000000     0.0513936  
H117     H      0.766950000000     0.295120000000     0.865230000000     0.0480332  
H118     H      0.778140000000     0.275750000000     0.332890000000     0.0381359  
H119     H      0.877870000000     0.376550000000     0.829130000000     0.0456188  
H120     H      0.868500000000     0.394610000000     0.862070000000     0.0559893  
H121     H      0.084830000000     0.082700000000     0.062760000000     0.0483094  
H122     H      0.139990000000     0.028580000000     0.071580000000     0.0431074  
H123     H      0.042530000000     0.931910000000     0.087100000000     0.0400064  
H124     H      0.987100000000     0.986550000000     0.078620000000     0.0478376  
H125     H      0.957180000000     0.021800000000     0.050800000000     0.0479338  
H126     H      0.902910000000     0.076060000000     0.040720000000     0.0410655  
H127     H      0.976300000000     0.184690000000     0.065400000000     0.0422177  
H128     H      0.030030000000     0.130490000000     0.075820000000     0.0483916  
H129     H      0.626180000000     0.160350000000     0.020220000000     0.0490334  
H130     H      0.689220000000     0.201290000000     0.031420000000     0.0401037  
H131     H      0.768020000000     0.128560000000     0.992430000000     0.0407969  
H132     H      0.705290000000     0.087570000000     0.981270000000     0.0494739  
H133     H      0.639160000000     0.095190000000     0.964280000000     0.0469441  
H134     H      0.582760000000     0.042860000000     0.954650000000     0.0416175  
H135     H      0.539260000000     0.033730000000     0.011450000000     0.0451137  
H136     H      0.596260000000     0.085060000000     0.021180000000     0.0491029  
H137     H      0.786010000000     0.395640000000     0.136800000000     0.0489503  
H138     H      0.759810000000     0.419240000000     0.167100000000     0.0432488  
H139     H      0.767560000000     0.281170000000     0.186660000000     0.0386633  
H140     H      0.795170000000     0.257790000000     0.156510000000     0.0475586  
H141     H      0.842500000000     0.366010000000     0.117720000000     0.0508658  
H142     H      0.855870000000     0.340490000000     0.085880000000     0.0400726  
H143     H      0.775500000000     0.223660000000     0.095380000000     0.040452   
H144     H      0.761760000000     0.249150000000     0.126820000000     0.0485651  
H145     H      0.751160000000     0.762020000000     0.173300000000     0.0479491  
H146     H      0.802140000000     0.705020000000     0.163220000000     0.0420483  
H147     H      0.725310000000     0.600580000000     0.188770000000     0.0414841  
H148     H      0.674830000000     0.657760000000     0.199450000000     0.0472788  
H149     H      0.621320000000     0.709930000000     0.189430000000     0.0448408  
H150     H      0.571850000000     0.768560000000     0.199590000000     0.0430996  
H151     H      0.678350000000     0.858540000000     0.210060000000     0.0411344  
H152     H      0.727940000000     0.799470000000     0.200590000000     0.0477047  
H153     H      0.056230000000     0.685850000000     0.085140000000     0.0488249  
H154     H      0.105140000000     0.746380000000     0.075770000000     0.0383065  
H155     H      0.144150000000     0.763840000000     0.133010000000     0.0402712  
H156     H      0.095410000000     0.703370000000     0.142360000000     0.0487628  
H157     H      0.074420000000     0.621250000000     0.140100000000     0.0487878  
H158     H      0.013550000000     0.579550000000     0.153090000000     0.0406138  
H159     H      0.928040000000     0.651180000000     0.116030000000     0.0417779  
H160     H      0.988460000000     0.692660000000     0.103170000000     0.0487488  
H161     H      0.831980000000     0.493500000000     0.050030000000     0.0499972  
H162     H      0.809470000000     0.481880000000     0.017740000000     0.0378159  
H163     H      0.765540000000     0.347440000000     0.031720000000     0.041803   
H164     H      0.784900000000     0.360710000000     0.064280000000     0.0538564  
H165     H      0.750630000000     0.441480000000     0.086090000000     0.0501106  
H166     H      0.762730000000     0.470460000000     0.117660000000     0.0353673  
H167     H      0.899050000000     0.466670000000     0.108490000000     0.0317963  
H168     H      0.886740000000     0.438440000000     0.076920000000     0.049581   
H169     H      0.682440000000     0.774620000000     0.908720000000     0.047968   
H170     H      0.738190000000     0.722290000000     0.899190000000     0.0407727  
H171     H      0.683240000000     0.618260000000     0.934000000000     0.0419524  
H172     H      0.628090000000     0.671360000000     0.944130000000     0.0481548  
H173     H      0.565790000000     0.715750000000     0.935550000000     0.051027   
H174     H      0.515890000000     0.771920000000     0.947740000000     0.0438755  
H175     H      0.617080000000     0.871770000000     0.948270000000     0.0417762  
H176     H      0.666900000000     0.815750000000     0.936460000000     0.04812    
H177     H      0.018730000000     0.714400000000     0.907780000000     0.0476677  
H178     H      0.959600000000     0.665590000000     0.917490000000     0.0400955  
H179     H      0.898110000000     0.685900000000     0.864220000000     0.041268   
H180     H      0.956910000000     0.734940000000     0.854590000000     0.0484663  
H181     H      0.033990000000     0.732240000000     0.846890000000     0.0482087  
H182     H      0.089140000000     0.786150000000     0.837160000000     0.0393986  
H183     H      0.085240000000     0.848800000000     0.891360000000     0.0401057  
H184     H      0.030040000000     0.795410000000     0.900990000000     0.0485868  
H185     H      0.734230000000     0.441490000000     0.837170000000     0.0493532  
H186     H      0.745060000000     0.477710000000     0.867430000000     0.037901   
H187     H      0.873110000000     0.515970000000     0.851170000000     0.0386652  
H188     H      0.861600000000     0.480880000000     0.320850000000     0.051981   
H189     H      0.810840000000     0.504500000000     0.294380000000     0.0494377  
H190     H      0.786680000000     0.483140000000     0.263200000000     0.0362504  
H191     H      0.741410000000     0.355180000000     0.284650000000     0.0416732  
H192     H      0.761850000000     0.378380000000     0.816030000000     0.0495697  
H193     H      0.231560000000     0.635540000000     0.102870000000     0.0488248  
H194     H      0.289160000000     0.682980000000     0.115170000000     0.0406593  
H195     H      0.233870000000     0.674160000000     0.170030000000     0.0411935  
H196     H      0.176090000000     0.626940000000     0.157670000000     0.0462567  
H197     H      0.176340000000     0.547730000000     0.145310000000     0.0483688  
H198     H      0.127260000000     0.490810000000     0.133210000000     0.0408018  
H199     H      0.101930000000     0.575000000000     0.085220000000     0.0406234  
H200     H      0.151510000000     0.632250000000     0.097420000000     0.0499934  
H201     H      0.169890000000     0.297100000000     0.037890000000     0.0482526  
H202     H      0.117910000000     0.354950000000     0.046610000000     0.0386418  
H203     H      0.105040000000     0.292960000000     0.100750000000     0.0399171  
H204     H      0.157230000000     0.235250000000     0.092040000000     0.0481288  
H205     H      0.236930000000     0.235810000000     0.084820000000     0.0485816  
H206     H      0.292810000000     0.182160000000     0.076200000000     0.0402667  
H207     H      0.228640000000     0.157890000000     0.023810000000     0.0391878  
H208     H      0.172830000000     0.211850000000     0.032420000000     0.047729   
H209     H      0.887970000000     0.345320000000     0.162270000000     0.0497134  
H210     H      0.916310000000     0.358550000000     0.131050000000     0.0367759  
H211     H      0.982780000000     0.477350000000     0.151050000000     0.0443317  
H212     H      0.955420000000     0.463440000000     0.182320000000     0.0471924  
H213     H      0.972080000000     0.398080000000     0.205140000000     0.0497439  
H214     H      0.954020000000     0.368040000000     0.235880000000     0.0358867  
H215     H      0.822570000000     0.351440000000     0.218300000000     0.0316089  
H216     H      0.841130000000     0.381300000000     0.187550000000     0.0562271  
H217     H      0.914700000000     0.441370000000     0.976680000000     0.0497966  
H218     H      0.887920000000     0.467820000000     0.946480000000     0.0392767  
H219     H      0.823120000000     0.578130000000     0.973790000000     0.0418173  
H220     H      0.848360000000     0.551010000000     0.003760000000     0.0442315  
H221     H      0.916310000000     0.551580000000     0.018820000000     0.0468222  
H222     H      0.951110000000     0.532750000000     0.048010000000     0.041034   
H223     H      0.933250000000     0.390360000000     0.036690000000     0.0406548  
H224     H      0.897280000000     0.409360000000     0.007340000000     0.0500661  
H225     H      0.129130000000     0.605510000000     0.883510000000     0.0482267  
H226     H      0.071690000000     0.554000000000     0.874460000000     0.0420417  
H227     H      0.164130000000     0.464570000000     0.849430000000     0.040701   
H228     H      0.221520000000     0.516700000000     0.857950000000     0.0481509  
H229     H      0.258830000000     0.541670000000     0.885330000000     0.0480907  
H230     H      0.316740000000     0.591940000000     0.895090000000     0.0408204  
H231     H      0.238220000000     0.707910000000     0.881930000000     0.043728   
H232     H      0.180830000000     0.657850000000     0.871620000000     0.0486392  
H233     H      0.223230000000     0.221300000000     0.831890000000     0.0483556  
H234     H      0.278820000000     0.172320000000     0.819240000000     0.0397189  
H235     H      0.187970000000     0.118180000000     0.279600000000     0.0432314  
H236     H      0.132480000000     0.167470000000     0.292140000000     0.0478782  
H237     H      0.118120000000     0.250430000000     0.293060000000     0.0495393  
H238     H      0.069140000000     0.307780000000     0.304770000000     0.0411857  
H239     H      0.104970000000     0.273590000000     0.861140000000     0.0385588  
H240     H      0.154050000000     0.215990000000     0.849380000000     0.0479734  
H241     H      0.877840000000     0.332750000000     0.925510000000     0.0518868  
H242     H      0.904760000000     0.351800000000     0.894510000000     0.0378959  
H243     H      0.011280000000     0.422510000000     0.919720000000     0.0404008  
H244     H      0.983970000000     0.403890000000     0.950580000000     0.0478695  
H245     H      0.977600000000     0.326210000000     0.966870000000     0.0494387  
H246     H      0.953630000000     0.291560000000     0.995840000000     0.0409126  
H247     H      0.824740000000     0.337110000000     0.984710000000     0.0321183  
H248     H      0.849350000000     0.372350000000     0.955750000000     0.0474169  
H249     H      0.849510000000     0.440370000000     0.249400000000     0.0512732  
H250     H      0.835000000000     0.460670000000     0.216970000000     0.0401793  
H251     H      0.941690000000     0.553680000000     0.218040000000     0.0395391  
H252     H      0.955670000000     0.534320000000     0.250350000000     0.0482367  
H253     H      0.901320000000     0.402810000000     0.269020000000     0.0458284  
H254     H      0.927440000000     0.381960000000     0.299800000000     0.0488867  
H255     H      0.953010000000     0.522520000000     0.811830000000     0.0392543  
H256     H      0.926640000000     0.543440000000     0.281000000000     0.0467269  
H257     H      0.358420000000     0.929710000000     0.693590000000     0.0500479  
H258     H      0.368140000000     0.952620000000     0.726200000000     0.0443156  
H259     H      0.247210000000     0.023190000000     0.723990000000     0.0417092  
H260     H      0.237860000000     0.000830000000     0.691810000000     0.0486472  
H261     H      0.308350000000     0.882030000000     0.673890000000     0.0542787  
H262     H      0.282460000000     0.858270000000     0.643260000000     0.0485601  
H263     H      0.247170000000     0.996210000000     0.630850000000     0.0391433  
H264     H      0.272130000000     0.019530000000     0.661580000000     0.0475315  
H265     H      0.324840000000     0.053270000000     0.438010000000     0.0466167  
H266     H      0.348940000000     0.080700000000     0.468050000000     0.0415968  
H267     H      0.313110000000     0.953620000000     0.493340000000     0.0399579  
H268     H      0.287230000000     0.926450000000     0.463030000000     0.0482421  
H269     H      0.305690000000     0.905210000000     0.430620000000     0.0505115  
H270     H      0.272590000000     0.885170000000     0.400700000000     0.0396397  
H271     H      0.222140000000     0.020780000000     0.396020000000     0.041086   
H272     H      0.254510000000     0.040460000000     0.425580000000     0.0478267  
H273     H      0.473280000000     0.952300000000     0.603150000000     0.0484762  
H274     H      0.454320000000     0.983210000000     0.572930000000     0.0397374  
H275     H      0.323070000000     0.997240000000     0.590590000000     0.0369937  
H276     H      0.342100000000     0.965580000000     0.620970000000     0.0509104  
H277     H      0.383280000000     0.993680000000     0.647670000000     0.0488825  
H278     H      0.414990000000     0.980840000000     0.678380000000     0.037118   
H279     H      0.496130000000     0.877240000000     0.655190000000     0.0421582  
H280     H      0.466420000000     0.891690000000     0.624630000000     0.0489231  
H281     H      0.411800000000     0.928290000000     0.355570000000     0.0522571  
H282     H      0.398390000000     0.945940000000     0.322760000000     0.0378326  
H283     H      0.281600000000     0.014010000000     0.338020000000     0.038358   
H284     H      0.296860000000     0.998920000000     0.370770000000     0.0490556  
H285     H      0.364670000000     0.026330000000     0.392160000000     0.0483247  
H286     H      0.393790000000     0.016530000000     0.423620000000     0.0366207  
H287     H      0.398900000000     0.872030000000     0.414960000000     0.0424534  
H288     H      0.370890000000     0.882200000000     0.383430000000     0.0505146  
H289     H      0.375640000000     0.848740000000     0.756180000000     0.0487149  
H290     H      0.398590000000     0.822160000000     0.725620000000     0.0392721  
H291     H      0.272370000000     0.849230000000     0.703610000000     0.0383325  
H292     H      0.249960000000     0.877010000000     0.733870000000     0.0493801  
H293     H      0.260610000000     0.937390000000     0.756180000000     0.0467999  
H294     H      0.229590000000     0.956050000000     0.786070000000     0.0419476  
H295     H      0.293850000000     0.841800000000     0.311120000000     0.036342   
H296     H      0.326410000000     0.823890000000     0.781070000000     0.0464346  
H297     H      0.449940000000     0.803750000000     0.552050000000     0.0475727  
H298     H      0.467420000000     0.823780000000     0.520360000000     0.0393051  
H299     H      0.386010000000     0.941170000000     0.523800000000     0.0441873  
H300     H      0.368770000000     0.921600000000     0.555980000000     0.0509563  
H301     H      0.469000000000     0.827380000000     0.581250000000     0.0471854  
H302     H      0.459000000000     0.803670000000     0.613170000000     0.0384231  
H303     H      0.330230000000     0.856010000000     0.612080000000     0.0467691  
H304     H      0.338900000000     0.877070000000     0.579410000000     0.0557626  
H305     H      0.246490000000     0.897160000000     0.494300000000     0.046339   
H306     H      0.214370000000     0.909830000000     0.524480000000     0.0408931  
H307     H      0.309470000000     0.823940000000     0.550210000000     0.0365355  
H308     H      0.341280000000     0.810090000000     0.519770000000     0.0494302  
H309     H      0.379100000000     0.838400000000     0.493720000000     0.0470219  
H310     H      0.405030000000     0.815280000000     0.463290000000     0.0452285  
H311     H      0.275200000000     0.814570000000     0.442410000000     0.0399843  
H312     H      0.249390000000     0.837310000000     0.472780000000     0.0474212  
H313     H      0.518960000000     0.845300000000     0.309440000000     0.0488203  
H314     H      0.545980000000     0.864870000000     0.778850000000     0.0403597  
H315     H      0.421250000000     0.915040000000     0.762990000000     0.0424234  
H316     H      0.393850000000     0.895150000000     0.793810000000     0.050193   
H317     H      0.492340000000     0.878870000000     0.338180000000     0.0481739  
H318     H      0.469480000000     0.845510000000     0.367670000000     0.036852   
H319     H      0.356600000000     0.791800000000     0.340670000000     0.0398293  
H320     H      0.379510000000     0.824680000000     0.811220000000     0.0460208  
H321     H      0.460930000000     0.559270000000     0.702360000000     0.0480162  
H322     H      0.408970000000     0.615370000000     0.691790000000     0.0404469  
H323     H      0.512130000000     0.706260000000     0.677310000000     0.0419289  
H324     H      0.564130000000     0.650020000000     0.687930000000     0.0446432  
H325     H      0.588540000000     0.573740000000     0.677600000000     0.048362   
H326     H      0.638480000000     0.513830000000     0.686310000000     0.0421341  
H327     H      0.565600000000     0.487860000000     0.736120000000     0.0390842  
H328     H      0.515580000000     0.547920000000     0.727400000000     0.04833    
H329     H      0.555990000000     0.237430000000     0.775400000000     0.0478652  
H330     H      0.610210000000     0.293330000000     0.767260000000     0.0406874  
H331     H      0.581560000000     0.274040000000     0.708970000000     0.0399714  
H332     H      0.527520000000     0.217470000000     0.717130000000     0.0483999  
H333     H      0.456820000000     0.219830000000     0.732190000000     0.0484539  
H334     H      0.397430000000     0.171580000000     0.741660000000     0.0400374  
H335     H      0.478240000000     0.108390000000     0.783080000000     0.0409321  
H336     H      0.538070000000     0.156280000000     0.773350000000     0.0457332  
H337     H      0.516830000000     0.602740000000     0.459290000000     0.0486322  
H338     H      0.458000000000     0.650380000000     0.448730000000     0.0409346  
H339     H      0.519370000000     0.666470000000     0.395410000000     0.0396655  
H340     H      0.578750000000     0.619100000000     0.406100000000     0.0493733  
H341     H      0.587260000000     0.537960000000     0.413640000000     0.0495169  
H342     H      0.637750000000     0.480890000000     0.424510000000     0.0412364  
H343     H      0.644200000000     0.546510000000     0.478100000000     0.0399142  
H344     H      0.593790000000     0.604000000000     0.467150000000     0.0462464  
H345     H      0.538570000000     0.166780000000     0.484340000000     0.049176   
H346     H      0.484500000000     0.114820000000     0.496060000000     0.0419197  
H347     H      0.465570000000     0.200700000000     0.543820000000     0.0395457  
H348     H      0.521270000000     0.251590000000     0.532750000000     0.0475114  
H349     H      0.531600000000     0.306610000000     0.510100000000     0.0477714  
H350     H      0.584090000000     0.361060000000     0.499050000000     0.0405959  
H351     H      0.658560000000     0.252350000000     0.475620000000     0.0435482  
H352     H      0.606400000000     0.197670000000     0.486820000000     0.0484388  
H353     H      0.997890000000     0.087630000000     0.780510000000     0.0476491  
H354     H      0.946320000000     0.142740000000     0.769110000000     0.0424287  
H355     H      0.979720000000     0.232600000000     0.314250000000     0.0413215  
H356     H      0.030290000000     0.176720000000     0.326160000000     0.0491396  
H357     H      0.095250000000     0.137260000000     0.322360000000     0.0482689  
H358     H      0.141340000000     0.078050000000     0.334990000000     0.0435985  
H359     H      0.049840000000     0.976690000000     0.817540000000     0.0409743  
H360     H      0.003580000000     0.035630000000     0.805170000000     0.0478461  
H361     H      0.690340000000     0.096850000000     0.706510000000     0.0483451  
H362     H      0.640800000000     0.036020000000     0.698460000000     0.0403768  
H363     H      0.564740000000     0.067570000000     0.746740000000     0.039898   
H364     H      0.614680000000     0.128050000000     0.754950000000     0.0471241  
H365     H      0.649460000000     0.200950000000     0.747360000000     0.0506051  
H366     H      0.706940000000     0.247980000000     0.760450000000     0.0462259  
H367     H      0.799480000000     0.146820000000     0.744560000000     0.0437015  
H368     H      0.742510000000     0.100200000000     0.731760000000     0.0480912  
H369     H      0.799410000000     0.284770000000     0.394110000000     0.0478963  
H370     H      0.778580000000     0.300710000000     0.425890000000     0.040968   
H371     H      0.804620000000     0.442770000000     0.417210000000     0.0431093  
H372     H      0.824490000000     0.426970000000     0.385080000000     0.0513839  
H373     H      0.766950000000     0.295120000000     0.365230000000     0.0480189  
H374     H      0.778140000000     0.275740000000     0.832890000000     0.0381486  
H375     H      0.877870000000     0.376550000000     0.329130000000     0.0456188  
H376     H      0.868500000000     0.394610000000     0.362070000000     0.0559987  
H377     H      0.084830000000     0.082700000000     0.562760000000     0.0484612  
H378     H      0.139980000000     0.028580000000     0.571580000000     0.043198   
H379     H      0.042530000000     0.931910000000     0.587100000000     0.0400936  
H380     H      0.987100000000     0.986550000000     0.578620000000     0.0479472  
H381     H      0.957170000000     0.021800000000     0.550800000000     0.0482183  
H382     H      0.902910000000     0.076060000000     0.540720000000     0.0414404  
H383     H      0.976300000000     0.184690000000     0.565400000000     0.0423228  
H384     H      0.030030000000     0.130500000000     0.575820000000     0.0484105  
H385     H      0.626180000000     0.160350000000     0.520220000000     0.0483654  
H386     H      0.689210000000     0.201290000000     0.531420000000     0.0412581  
H387     H      0.768020000000     0.128560000000     0.492430000000     0.041324   
H388     H      0.705280000000     0.087580000000     0.481270000000     0.0483921  
H389     H      0.639160000000     0.095190000000     0.464280000000     0.0469577  
H390     H      0.582760000000     0.042860000000     0.454660000000     0.0413145  
H391     H      0.539260000000     0.033730000000     0.511450000000     0.0451055  
H392     H      0.596250000000     0.085070000000     0.521190000000     0.0490364  
H393     H      0.786010000000     0.395650000000     0.636800000000     0.0489555  
H394     H      0.759800000000     0.419240000000     0.667100000000     0.0432438  
H395     H      0.767570000000     0.281180000000     0.686670000000     0.0386276  
H396     H      0.795180000000     0.257790000000     0.656510000000     0.0475593  
H397     H      0.842500000000     0.366020000000     0.617720000000     0.0508473  
H398     H      0.855870000000     0.340500000000     0.585880000000     0.040084   
H399     H      0.775500000000     0.223660000000     0.595380000000     0.0404905  
H400     H      0.761760000000     0.249150000000     0.626820000000     0.0485891  
H401     H      0.751160000000     0.762020000000     0.673300000000     0.0480231  
H402     H      0.802140000000     0.705020000000     0.663210000000     0.0420521  
H403     H      0.725310000000     0.600580000000     0.688770000000     0.0414513  
H404     H      0.674840000000     0.657770000000     0.699450000000     0.0473157  
H405     H      0.621320000000     0.709930000000     0.689430000000     0.0448334  
H406     H      0.571850000000     0.768560000000     0.699590000000     0.0430971  
H407     H      0.678350000000     0.858540000000     0.710060000000     0.0411376  
H408     H      0.727940000000     0.799470000000     0.700590000000     0.0476773  
H409     H      0.056230000000     0.685850000000     0.585140000000     0.0489823  
H410     H      0.105140000000     0.746390000000     0.575770000000     0.0385873  
H411     H      0.144150000000     0.763840000000     0.633010000000     0.0402732  
H412     H      0.095400000000     0.703370000000     0.642360000000     0.0487213  
H413     H      0.074420000000     0.621250000000     0.640100000000     0.0487647  
H414     H      0.013550000000     0.579550000000     0.653090000000     0.0405897  
H415     H      0.928030000000     0.651180000000     0.616030000000     0.041843   
H416     H      0.988460000000     0.692660000000     0.603170000000     0.0489453  
H417     H      0.831970000000     0.493500000000     0.550030000000     0.0503146  
H418     H      0.809460000000     0.481880000000     0.517740000000     0.0383045  
H419     H      0.765530000000     0.347450000000     0.531720000000     0.0420273  
H420     H      0.784900000000     0.360710000000     0.564280000000     0.0540863  
H421     H      0.750620000000     0.441480000000     0.586090000000     0.0502273  
H422     H      0.762720000000     0.470470000000     0.617660000000     0.0354309  
H423     H      0.899040000000     0.466670000000     0.608490000000     0.0318057  
H424     H      0.886740000000     0.438440000000     0.576920000000     0.0495492  
H425     H      0.682440000000     0.774620000000     0.408720000000     0.0479265  
H426     H      0.738180000000     0.722290000000     0.399190000000     0.0407627  
H427     H      0.683240000000     0.618260000000     0.434000000000     0.0419084  
H428     H      0.628090000000     0.671360000000     0.444130000000     0.0480213  
H429     H      0.565780000000     0.715750000000     0.435550000000     0.0509978  
H430     H      0.515890000000     0.771920000000     0.447740000000     0.0437232  
H431     H      0.617080000000     0.871770000000     0.448280000000     0.0415662  
H432     H      0.666900000000     0.815760000000     0.436460000000     0.04796    
H433     H      0.018730000000     0.714400000000     0.407780000000     0.0474927  
H434     H      0.959590000000     0.665580000000     0.417490000000     0.0398904  
H435     H      0.898100000000     0.685900000000     0.364220000000     0.0412787  
H436     H      0.956900000000     0.734940000000     0.354590000000     0.0484685  
H437     H      0.033980000000     0.732240000000     0.346890000000     0.0482308  
H438     H      0.089140000000     0.786140000000     0.337160000000     0.0394138  
H439     H      0.085240000000     0.848790000000     0.391360000000     0.0399594  
H440     H      0.030040000000     0.795400000000     0.400990000000     0.0484729  
H441     H      0.734230000000     0.441500000000     0.337170000000     0.0493756  
H442     H      0.745060000000     0.477720000000     0.367430000000     0.0379032  
H443     H      0.873110000000     0.515960000000     0.351170000000     0.0386713  
H444     H      0.861600000000     0.480890000000     0.820850000000     0.0519983  
H445     H      0.810840000000     0.504510000000     0.794380000000     0.0493862  
H446     H      0.786680000000     0.483140000000     0.763200000000     0.0362591  
H447     H      0.741420000000     0.355180000000     0.784650000000     0.0416839  
H448     H      0.761840000000     0.378390000000     0.316030000000     0.0495973  
H449     H      0.231560000000     0.635540000000     0.602870000000     0.0489785  
H450     H      0.289160000000     0.682980000000     0.615170000000     0.0407365  
H451     H      0.233870000000     0.674160000000     0.670030000000     0.0411637  
H452     H      0.176080000000     0.626930000000     0.657670000000     0.0462341  
H453     H      0.176340000000     0.547740000000     0.645310000000     0.0483535  
H454     H      0.127260000000     0.490810000000     0.633210000000     0.040812   
H455     H      0.101930000000     0.575000000000     0.585220000000     0.0408047  
H456     H      0.151510000000     0.632250000000     0.597420000000     0.0500572  
H457     H      0.169880000000     0.297100000000     0.537890000000     0.0486361  
H458     H      0.117910000000     0.354940000000     0.546610000000     0.0389985  
H459     H      0.105030000000     0.292960000000     0.600750000000     0.0399311  
H460     H      0.157220000000     0.235240000000     0.592040000000     0.0481062  
H461     H      0.236930000000     0.235810000000     0.584820000000     0.0486152  
H462     H      0.292800000000     0.182160000000     0.576200000000     0.0403211  
H463     H      0.228630000000     0.157890000000     0.523810000000     0.0396654  
H464     H      0.172820000000     0.211850000000     0.532420000000     0.0480999  
H465     H      0.887970000000     0.345320000000     0.662270000000     0.0497188  
H466     H      0.916300000000     0.358550000000     0.631050000000     0.0367533  
H467     H      0.982780000000     0.477360000000     0.651050000000     0.0443199  
H468     H      0.955420000000     0.463450000000     0.682320000000     0.047173   
H469     H      0.972080000000     0.398080000000     0.705140000000     0.0497225  
H470     H      0.954020000000     0.368040000000     0.735880000000     0.0358694  
H471     H      0.822570000000     0.351440000000     0.718300000000     0.0315979  
H472     H      0.841130000000     0.381310000000     0.687550000000     0.0562315  
H473     H      0.914690000000     0.441370000000     0.476680000000     0.0489947  
H474     H      0.887910000000     0.467820000000     0.446480000000     0.0392435  
H475     H      0.823110000000     0.578130000000     0.473790000000     0.0409428  
H476     H      0.848350000000     0.551010000000     0.503760000000     0.0471142  
H477     H      0.916310000000     0.551590000000     0.518820000000     0.0478389  
H478     H      0.951100000000     0.532750000000     0.548010000000     0.0410751  
H479     H      0.933240000000     0.390360000000     0.536690000000     0.0407654  
H480     H      0.897280000000     0.409360000000     0.507340000000     0.0515124  
H481     H      0.129130000000     0.605500000000     0.383510000000     0.0481577  
H482     H      0.071700000000     0.554000000000     0.374460000000     0.0420028  
H483     H      0.164130000000     0.464560000000     0.349430000000     0.0406963  
H484     H      0.221520000000     0.516690000000     0.357950000000     0.0481637  
H485     H      0.258830000000     0.541660000000     0.385340000000     0.0479769  
H486     H      0.316740000000     0.591940000000     0.395090000000     0.0407354  
H487     H      0.238220000000     0.707910000000     0.381930000000     0.0437103  
H488     H      0.180830000000     0.657830000000     0.371620000000     0.048643   
H489     H      0.223230000000     0.221280000000     0.331900000000     0.0483429  
H490     H      0.278820000000     0.172310000000     0.319240000000     0.039715   
H491     H      0.187960000000     0.118180000000     0.779600000000     0.0432061  
H492     H      0.132470000000     0.167470000000     0.792140000000     0.0478566  
H493     H      0.118110000000     0.250430000000     0.793050000000     0.0494572  
H494     H      0.069130000000     0.307790000000     0.804770000000     0.0411766  
H495     H      0.104960000000     0.273580000000     0.361150000000     0.0384203  
H496     H      0.154050000000     0.215980000000     0.349390000000     0.0479193  
H497     H      0.877830000000     0.332750000000     0.425510000000     0.0517718  
H498     H      0.904760000000     0.351800000000     0.394510000000     0.0378947  
H499     H      0.011280000000     0.422520000000     0.419720000000     0.0402417  
H500     H      0.983960000000     0.403900000000     0.450580000000     0.0475071  
H501     H      0.977600000000     0.326210000000     0.466870000000     0.0492432  
H502     H      0.953620000000     0.291570000000     0.495840000000     0.0394318  
H503     H      0.824740000000     0.337110000000     0.484710000000     0.0309671  
H504     H      0.849350000000     0.372350000000     0.455750000000     0.0476001  
H505     H      0.849510000000     0.440380000000     0.749400000000     0.0512775  
H506     H      0.835000000000     0.460670000000     0.716970000000     0.0401646  
H507     H      0.941700000000     0.553670000000     0.718030000000     0.0395105  
H508     H      0.955680000000     0.534320000000     0.750340000000     0.0482373  
H509     H      0.901320000000     0.402820000000     0.769020000000     0.0458086  
H510     H      0.927430000000     0.381970000000     0.799810000000     0.0489033  
H511     H      0.953010000000     0.522510000000     0.311830000000     0.0392806  
H512     H      0.926650000000     0.543450000000     0.781000000000     0.0467014  
In1      In     0.017620000000     0.409120000000     0.852860000000     2.39428    
In2      In     0.023470000000     0.431230000000     0.090260000000     2.40352    
In3      In     0.823560000000     0.586180000000     0.906970000000     2.39445    
In4      In     0.860110000000     0.552210000000     0.160970000000     2.39298    
In5      In     0.843010000000     0.228700000000     0.035540000000     2.3993     
In6      In     0.858240000000     0.277430000000     0.275530000000     2.3905     
In7      In     0.720560000000     0.402950000000     0.971670000000     2.40165    
In8      In     0.688690000000     0.389370000000     0.224910000000     2.40425    
In9      In     0.381290000000     0.741500000000     0.903820000000     2.40335    
In10     In     0.367040000000     0.759600000000     0.164520000000     2.38693    
In11     In     0.477410000000     0.924810000000     0.968240000000     2.37226    
In12     In     0.535450000000     0.922840000000     0.216550000000     2.40485    
In13     In     0.363120000000     0.077300000000     0.034180000000     2.40812    
In14     In     0.330650000000     0.053330000000     0.278500000000     2.39564    
In15     In     0.179760000000     0.920570000000     0.846920000000     2.38813    
In16     In     0.191410000000     0.880070000000     0.089320000000     2.3914     
In17     In     0.017620000000     0.409110000000     0.352870000000     2.39429    
In18     In     0.023470000000     0.431230000000     0.590260000000     2.40328    
In19     In     0.823550000000     0.586180000000     0.406970000000     2.39447    
In20     In     0.860110000000     0.552220000000     0.660970000000     2.39305    
In21     In     0.843010000000     0.228700000000     0.535540000000     2.40004    
In22     In     0.858230000000     0.277430000000     0.775530000000     2.39096    
In23     In     0.720560000000     0.402960000000     0.471670000000     2.40177    
In24     In     0.688690000000     0.389370000000     0.724910000000     2.40431    
In25     In     0.381290000000     0.741500000000     0.403820000000     2.40342    
In26     In     0.367040000000     0.759600000000     0.664520000000     2.38675    
In27     In     0.477410000000     0.924820000000     0.468240000000     2.37335    
In28     In     0.535450000000     0.922840000000     0.716550000000     2.40495    
In29     In     0.363110000000     0.077300000000     0.534180000000     2.40862    
In30     In     0.330650000000     0.053330000000     0.778500000000     2.39603    
In31     In     0.179760000000     0.920560000000     0.346920000000     2.38784    
In32     In     0.191400000000     0.880070000000     0.589320000000     2.39153    
O1       O      0.040320000000     0.479950000000     0.860710000000    -0.473616   
O2       O      0.086830000000     0.433070000000     0.851150000000    -0.487069   
O3       O      0.965220000000     0.396770000000     0.331240000000    -0.486944   
O4       O      0.046430000000     0.365630000000     0.330060000000    -0.486603   
O5       O      0.016260000000     0.412110000000     0.884390000000    -0.497598   
O6       O      0.049600000000     0.340070000000     0.857620000000    -0.488499   
O7       O      0.988420000000     0.463900000000     0.834370000000    -0.486197   
O8       O      0.960780000000     0.386390000000     0.871070000000    -0.493132   
O9       O      0.057900000000     0.499180000000     0.086970000000    -0.470222   
O10      O      0.077090000000     0.455590000000     0.109060000000    -0.49121    
O11      O      0.976990000000     0.409670000000     0.067070000000    -0.492041   
O12      O      0.071670000000     0.399770000000     0.070330000000    -0.496901   
O13      O      0.992450000000     0.459790000000     0.116200000000    -0.495676   
O14      O      0.055760000000     0.362640000000     0.094630000000    -0.486468   
O15      O      0.989220000000     0.479740000000     0.070730000000    -0.488606   
O16      O      0.977220000000     0.392000000000     0.109140000000    -0.485727   
O17      O      0.887800000000     0.621360000000     0.912680000000    -0.484338   
O18      O      0.855930000000     0.635850000000     0.887220000000    -0.477738   
O19      O      0.828380000000     0.585490000000     0.938400000000    -0.496165   
O20      O      0.785440000000     0.651500000000     0.903960000000    -0.487196   
O21      O      0.850150000000     0.542970000000     0.883640000000    -0.495822   
O22      O      0.754200000000     0.595820000000     0.916710000000    -0.477968   
O23      O      0.847700000000     0.525880000000     0.924330000000    -0.49037    
O24      O      0.783260000000     0.539570000000     0.888340000000    -0.491944   
O25      O      0.932200000000     0.560950000000     0.157110000000    -0.475575   
O26      O      0.890560000000     0.601550000000     0.140590000000    -0.478081   
O27      O      0.894140000000     0.557640000000     0.188740000000    -0.495883   
O28      O      0.794310000000     0.572240000000     0.172110000000    -0.482954   
O29      O      0.874980000000     0.493320000000     0.141530000000    -0.496701   
O30      O      0.835110000000     0.624680000000     0.162450000000    -0.476406   
O31      O      0.854270000000     0.500150000000     0.184700000000    -0.487758   
O32      O      0.813120000000     0.522090000000     0.139740000000    -0.491991   
O33      O      0.770460000000     0.221380000000     0.032510000000    -0.483556   
O34      O      0.809660000000     0.179470000000     0.015720000000    -0.482541   
O35      O      0.814050000000     0.224250000000     0.064220000000    -0.497798   
O36      O      0.906430000000     0.209490000000     0.049150000000    -0.485481   
O37      O      0.834930000000     0.288110000000     0.015100000000    -0.489706   
O38      O      0.869260000000     0.156460000000     0.037380000000    -0.475823   
O39      O      0.844520000000     0.286170000000     0.057010000000    -0.489425   
O40      O      0.894360000000     0.253760000000     0.015690000000    -0.498301   
O41      O      0.831150000000     0.214840000000     0.261570000000    -0.471773   
O42      O      0.787010000000     0.266110000000     0.269350000000    -0.467399   
O43      O      0.858320000000     0.332950000000     0.797770000000    -0.4955     
O44      O      0.918780000000     0.261250000000     0.292280000000    -0.482142   
O45      O      0.839840000000     0.327710000000     0.252630000000    -0.494228   
O46      O      0.897460000000     0.212860000000     0.272480000000    -0.464254   
O47      O      0.825280000000     0.271570000000     0.303440000000    -0.498756   
O48      O      0.905550000000     0.312510000000     0.256030000000    -0.501213   
O49      O      0.656070000000     0.385490000000     0.984520000000    -0.487314   
O50      O      0.691460000000     0.332330000000     0.971960000000    -0.468327   
O51      O      0.769820000000     0.421750000000     0.949350000000    -0.491703   
O52      O      0.678450000000     0.436600000000     0.949880000000    -0.495751   
O53      O      0.748480000000     0.373400000000     0.998360000000    -0.494234   
O54      O      0.689790000000     0.472720000000     0.974980000000    -0.482036   
O55      O      0.747090000000     0.354100000000     0.950420000000    -0.485745   
O56      O      0.765630000000     0.440780000000     0.991770000000    -0.484499   
O57      O      0.638930000000     0.336200000000     0.216290000000    -0.483852   
O58      O      0.651910000000     0.345050000000     0.245100000000    -0.486429   
O59      O      0.732910000000     0.405600000000     0.200720000000    -0.484443   
O60      O      0.634800000000     0.438860000000     0.232200000000    -0.48798    
O61      O      0.731410000000     0.367690000000     0.249050000000    -0.483411   
O62      O      0.662120000000     0.443430000000     0.205350000000    -0.482972   
O63      O      0.721410000000     0.336350000000     0.206890000000    -0.487779   
O64      O      0.727610000000     0.437870000000     0.243120000000    -0.496735   
O65      O      0.354040000000     0.670450000000     0.899150000000    -0.48221    
O66      O      0.312470000000     0.726710000000     0.895570000000    -0.472478   
O67      O      0.395310000000     0.783950000000     0.929770000000    -0.483124   
O68      O      0.414300000000     0.694850000000     0.924470000000    -0.487278   
O69      O      0.376040000000     0.757070000000     0.873020000000    -0.499735   
O70      O      0.446640000000     0.708950000000     0.899120000000    -0.490803   
O71      O      0.330800000000     0.777330000000     0.921080000000    -0.490141   
O72      O      0.415440000000     0.800420000000     0.889190000000    -0.496874   
O73      O      0.435390000000     0.737590000000     0.171390000000    -0.473382   
O74      O      0.385370000000     0.690210000000     0.176050000000    -0.488643   
O75      O      0.354350000000     0.816800000000     0.143520000000    -0.495307   
O76      O      0.334050000000     0.719680000000     0.141450000000    -0.489078   
O77      O      0.386490000000     0.799940000000     0.190590000000    -0.490105   
O78      O      0.303910000000     0.721440000000     0.167860000000    -0.473334   
O79      O      0.410790000000     0.778100000000     0.140410000000    -0.486997   
O80      O      0.321100000000     0.799190000000     0.182840000000    -0.49082    
O81      O      0.543370000000     0.901500000000     0.958560000000    -0.475127   
O82      O      0.494090000000     0.852140000000     0.959850000000    -0.464684   
O83      O      0.426440000000     0.928830000000     0.991340000000    -0.477879   
O84      O      0.502150000000     0.978480000000     0.988510000000    -0.481396   
O85      O      0.432290000000     0.899260000000     0.945550000000    -0.493219   
O86      O      0.525220000000     0.980770000000     0.960800000000    -0.468254   
O87      O      0.477050000000     0.881330000000     0.994090000000    -0.491967   
O88      O      0.436770000000     0.970120000000     0.948870000000    -0.48931    
O89      O      0.602970000000     0.895560000000     0.212340000000    -0.477631   
O90      O      0.551370000000     0.848370000000     0.211990000000    -0.474501   
O91      O      0.541760000000     0.900130000000     0.246450000000    -0.500685   
O92      O      0.546860000000     0.991000000000     0.230710000000    -0.494321   
O93      O      0.511830000000     0.896380000000     0.188820000000    -0.495932   
O94      O      0.581350000000     0.977660000000     0.206040000000    -0.485476   
O95      O      0.478880000000     0.912590000000     0.236300000000    -0.490379   
O96      O      0.478900000000     0.952680000000     0.199890000000    -0.488383   
O97      O      0.296890000000     0.108860000000     0.029970000000    -0.488077   
O98      O      0.334080000000     0.131180000000     0.052970000000    -0.481653   
O99      O      0.352540000000     0.080050000000     0.003210000000    -0.494924   
O100     O      0.427480000000     0.086870000000     0.019880000000    -0.480387   
O101     O      0.340890000000     0.031820000000     0.058060000000    -0.497461   
O102     O      0.405930000000     0.139470000000     0.037590000000    -0.482321   
O103     O      0.341690000000     0.016620000000     0.016450000000    -0.490136   
O104     O      0.407200000000     0.033830000000     0.052000000000    -0.501665   
O105     O      0.399280000000     0.079460000000     0.282110000000    -0.482598   
O106     O      0.360690000000     0.109640000000     0.261190000000    -0.495142   
O107     O      0.300390000000     0.017060000000     0.803160000000    -0.490861   
O108     O      0.310260000000     0.115090000000     0.295310000000    -0.485318   
O109     O      0.346960000000     0.998820000000     0.256620000000    -0.490602   
O110     O      0.262450000000     0.079370000000     0.279980000000    -0.467941   
O111     O      0.366190000000     0.005270000000     0.298360000000    -0.482144   
O112     O      0.290840000000     0.037910000000     0.253010000000    -0.491777   
O113     O      0.141450000000     0.855110000000     0.841850000000    -0.482623   
O114     O      0.133680000000     0.888870000000     0.867630000000    -0.496432   
O115     O      0.213180000000     0.943510000000     0.320490000000    -0.493566   
O116     O      0.118700000000     0.945020000000     0.332650000000    -0.485097   
O117     O      0.229480000000     0.903710000000     0.869610000000    -0.485448   
O118     O      0.162250000000     0.994820000000     0.842750000000    -0.462255   
O119     O      0.229380000000     0.878510000000     0.830620000000    -0.481257   
O120     O      0.197700000000     0.967060000000     0.870620000000    -0.486941   
O121     O      0.159600000000     0.812390000000     0.081920000000    -0.491183   
O122     O      0.163940000000     0.830260000000     0.110440000000    -0.487845   
O123     O      0.199680000000     0.888970000000     0.058290000000    -0.499214   
O124     O      0.168450000000     0.950740000000     0.081750000000    -0.471473   
O125     O      0.242610000000     0.870000000000     0.111790000000    -0.48501    
O126     O      0.121250000000     0.902640000000     0.089710000000    -0.482992   
O127     O      0.251080000000     0.858330000000     0.072840000000    -0.493538   
O128     O      0.215180000000     0.935230000000     0.108890000000    -0.487841   
O129     O      0.040320000000     0.479940000000     0.360710000000    -0.473713   
O130     O      0.086830000000     0.433060000000     0.351150000000    -0.486998   
O131     O      0.965210000000     0.396780000000     0.831240000000    -0.487067   
O132     O      0.046430000000     0.365640000000     0.830060000000    -0.486858   
O133     O      0.016250000000     0.412110000000     0.384390000000    -0.498094   
O134     O      0.049600000000     0.340060000000     0.357620000000    -0.488644   
O135     O      0.988420000000     0.463900000000     0.334370000000    -0.4859     
O136     O      0.960780000000     0.386390000000     0.371070000000    -0.493378   
O137     O      0.057900000000     0.499190000000     0.586970000000    -0.469956   
O138     O      0.077090000000     0.455590000000     0.609060000000    -0.491157   
O139     O      0.976990000000     0.409670000000     0.567070000000    -0.491875   
O140     O      0.071670000000     0.399770000000     0.570330000000    -0.496685   
O141     O      0.992450000000     0.459790000000     0.616200000000    -0.495668   
O142     O      0.055760000000     0.362640000000     0.594630000000    -0.486478   
O143     O      0.989210000000     0.479750000000     0.570730000000    -0.488274   
O144     O      0.977220000000     0.392000000000     0.609140000000    -0.48571    
O145     O      0.887790000000     0.621360000000     0.412680000000    -0.484453   
O146     O      0.855920000000     0.635860000000     0.387220000000    -0.477613   
O147     O      0.828380000000     0.585490000000     0.438400000000    -0.496418   
O148     O      0.785430000000     0.651510000000     0.403960000000    -0.487178   
O149     O      0.850150000000     0.542970000000     0.383650000000    -0.495911   
O150     O      0.754190000000     0.595820000000     0.416710000000    -0.478003   
O151     O      0.847690000000     0.525880000000     0.424330000000    -0.490433   
O152     O      0.783260000000     0.539570000000     0.388340000000    -0.491975   
O153     O      0.932200000000     0.560950000000     0.657110000000    -0.475546   
O154     O      0.890560000000     0.601560000000     0.640590000000    -0.478004   
O155     O      0.894140000000     0.557650000000     0.688730000000    -0.495955   
O156     O      0.794310000000     0.572250000000     0.672110000000    -0.483063   
O157     O      0.874970000000     0.493320000000     0.641530000000    -0.49679    
O158     O      0.835110000000     0.624690000000     0.662450000000    -0.476416   
O159     O      0.854270000000     0.500150000000     0.684700000000    -0.487604   
O160     O      0.813120000000     0.522090000000     0.639740000000    -0.492044   
O161     O      0.770460000000     0.221380000000     0.532510000000    -0.482912   
O162     O      0.809660000000     0.179470000000     0.515720000000    -0.481087   
O163     O      0.814050000000     0.224250000000     0.564220000000    -0.497738   
O164     O      0.906430000000     0.209500000000     0.549150000000    -0.485383   
O165     O      0.834930000000     0.288110000000     0.515100000000    -0.489924   
O166     O      0.869260000000     0.156470000000     0.537380000000    -0.475642   
O167     O      0.844520000000     0.286170000000     0.557010000000    -0.48948    
O168     O      0.894350000000     0.253760000000     0.515690000000    -0.498502   
O169     O      0.831150000000     0.214840000000     0.761570000000    -0.471695   
O170     O      0.787010000000     0.266110000000     0.769360000000    -0.467449   
O171     O      0.858320000000     0.332960000000     0.297770000000    -0.495365   
O172     O      0.918780000000     0.261250000000     0.792270000000    -0.482376   
O173     O      0.839840000000     0.327710000000     0.752630000000    -0.494482   
O174     O      0.897460000000     0.212860000000     0.772480000000    -0.464328   
O175     O      0.825280000000     0.271570000000     0.803440000000    -0.498907   
O176     O      0.905540000000     0.312510000000     0.756030000000    -0.501478   
O177     O      0.656060000000     0.385490000000     0.484520000000    -0.487248   
O178     O      0.691450000000     0.332330000000     0.471960000000    -0.468      
O179     O      0.769820000000     0.421750000000     0.449350000000    -0.491773   
O180     O      0.678450000000     0.436600000000     0.449880000000    -0.495864   
O181     O      0.748470000000     0.373400000000     0.498360000000    -0.498689   
O182     O      0.689790000000     0.472720000000     0.474980000000    -0.482526   
O183     O      0.747090000000     0.354100000000     0.450420000000    -0.485874   
O184     O      0.765620000000     0.440780000000     0.491770000000    -0.488801   
O185     O      0.638940000000     0.336200000000     0.716290000000    -0.483934   
O186     O      0.651900000000     0.345050000000     0.745100000000    -0.486443   
O187     O      0.732910000000     0.405600000000     0.700720000000    -0.484491   
O188     O      0.634800000000     0.438860000000     0.732200000000    -0.488014   
O189     O      0.731410000000     0.367690000000     0.749050000000    -0.483525   
O190     O      0.662110000000     0.443420000000     0.705350000000    -0.483006   
O191     O      0.721410000000     0.336350000000     0.706890000000    -0.487819   
O192     O      0.727610000000     0.437870000000     0.743120000000    -0.496892   
O193     O      0.354040000000     0.670450000000     0.399150000000    -0.482272   
O194     O      0.312470000000     0.726710000000     0.395560000000    -0.472465   
O195     O      0.395310000000     0.783960000000     0.429760000000    -0.483226   
O196     O      0.414300000000     0.694850000000     0.424470000000    -0.487478   
O197     O      0.376040000000     0.757080000000     0.373020000000    -0.499817   
O198     O      0.446630000000     0.708950000000     0.399120000000    -0.490915   
O199     O      0.330790000000     0.777330000000     0.421080000000    -0.490007   
O200     O      0.415440000000     0.800420000000     0.389190000000    -0.496849   
O201     O      0.435390000000     0.737600000000     0.671390000000    -0.473166   
O202     O      0.385370000000     0.690200000000     0.676050000000    -0.488511   
O203     O      0.354350000000     0.816800000000     0.643520000000    -0.495367   
O204     O      0.334040000000     0.719680000000     0.641450000000    -0.489017   
O205     O      0.386490000000     0.799930000000     0.690590000000    -0.490129   
O206     O      0.303910000000     0.721430000000     0.667860000000    -0.473353   
O207     O      0.410790000000     0.778100000000     0.640410000000    -0.486852   
O208     O      0.321100000000     0.799190000000     0.682840000000    -0.490823   
O209     O      0.543360000000     0.901500000000     0.458560000000    -0.47553    
O210     O      0.494090000000     0.852150000000     0.459850000000    -0.464943   
O211     O      0.426440000000     0.928830000000     0.491340000000    -0.482263   
O212     O      0.502140000000     0.978480000000     0.488510000000    -0.482842   
O213     O      0.432290000000     0.899270000000     0.445560000000    -0.493555   
O214     O      0.525220000000     0.980770000000     0.460800000000    -0.468694   
O215     O      0.477050000000     0.881340000000     0.494090000000    -0.496372   
O216     O      0.436770000000     0.970120000000     0.448870000000    -0.489572   
O217     O      0.602970000000     0.895570000000     0.712340000000    -0.477576   
O218     O      0.551370000000     0.848370000000     0.711990000000    -0.474479   
O219     O      0.541760000000     0.900130000000     0.746450000000    -0.500644   
O220     O      0.546850000000     0.991000000000     0.730710000000    -0.494263   
O221     O      0.511840000000     0.896390000000     0.688820000000    -0.49597    
O222     O      0.581350000000     0.977660000000     0.706040000000    -0.485423   
O223     O      0.478880000000     0.912590000000     0.736300000000    -0.490436   
O224     O      0.478900000000     0.952680000000     0.699890000000    -0.488439   
O225     O      0.296890000000     0.108860000000     0.529970000000    -0.4878     
O226     O      0.334080000000     0.131180000000     0.552970000000    -0.481529   
O227     O      0.352540000000     0.080050000000     0.503210000000    -0.494792   
O228     O      0.427480000000     0.086870000000     0.519880000000    -0.480132   
O229     O      0.340880000000     0.031820000000     0.558060000000    -0.497283   
O230     O      0.405920000000     0.139470000000     0.537590000000    -0.482672   
O231     O      0.341690000000     0.016620000000     0.516450000000    -0.490419   
O232     O      0.407200000000     0.033830000000     0.552000000000    -0.501404   
O233     O      0.399270000000     0.079470000000     0.782110000000    -0.482898   
O234     O      0.360700000000     0.109630000000     0.761190000000    -0.495414   
O235     O      0.300390000000     0.017030000000     0.303150000000    -0.490894   
O236     O      0.310260000000     0.115100000000     0.795300000000    -0.485437   
O237     O      0.346950000000     0.998820000000     0.756620000000    -0.490714   
O238     O      0.262450000000     0.079370000000     0.779980000000    -0.468077   
O239     O      0.366180000000     0.005260000000     0.798350000000    -0.482319   
O240     O      0.290840000000     0.037910000000     0.753010000000    -0.491935   
O241     O      0.141450000000     0.855100000000     0.341850000000    -0.482584   
O242     O      0.133680000000     0.888860000000     0.367630000000    -0.496482   
O243     O      0.213200000000     0.943520000000     0.820500000000    -0.493799   
O244     O      0.118700000000     0.945020000000     0.832650000000    -0.485135   
O245     O      0.229480000000     0.903710000000     0.369610000000    -0.485507   
O246     O      0.162250000000     0.994820000000     0.342750000000    -0.462182   
O247     O      0.229380000000     0.878510000000     0.330620000000    -0.481196   
O248     O      0.197700000000     0.967060000000     0.370620000000    -0.486849   
O249     O      0.159600000000     0.812390000000     0.581920000000    -0.491058   
O250     O      0.163940000000     0.830260000000     0.610440000000    -0.487898   
O251     O      0.199680000000     0.888970000000     0.558290000000    -0.499073   
O252     O      0.168450000000     0.950740000000     0.581750000000    -0.471441   
O253     O      0.242610000000     0.870000000000     0.611790000000    -0.484937   
O254     O      0.121250000000     0.902640000000     0.589710000000    -0.483042   
O255     O      0.251080000000     0.858340000000     0.572840000000    -0.493445   
O256     O      0.215180000000     0.935230000000     0.608890000000    -0.487826   


