data_structure

_audit_creation_method RASPA-1.0
_audit_creation_date 2023-5-22
_audit_author_name 'Poobodin Mano'

_cell_length_a    74.474
_cell_length_b    73.971
_cell_length_c    74.1897
_cell_angle_alpha 89.9998
_cell_angle_beta  89.9999
_cell_angle_gamma 90.001
_cell_volume      408705

_symmetry_cell_setting          triclinic
_symmetry_space_group_name_Hall 'P 1'
_symmetry_space_group_name_H-M  'P 1'
_symmetry_Int_Tables_number     1

_symmetry_equiv_pos_as_xyz 'x,y,z'

loop_
_atom_site_label
_atom_site_type_symbol
_atom_site_fract_x
_atom_site_fract_y
_atom_site_fract_z
_atom_site_charge
C1       C      0.552430000000     0.736380000000     0.883780000000     0.357365   
C2       C      0.613640000000     0.713470000000     0.878740000000     0.356912   
C3       C      0.596080000000     0.763880000000     0.861160000000     0.356687   
C4       C      0.591390000000     0.741000000000     0.922460000000     0.357298   
C5       C      0.548530000000     0.740290000000     0.099110000000     0.356825   
C6       C      0.608740000000     0.715300000000     0.100580000000     0.355642   
C7       C      0.587650000000     0.743210000000     0.058250000000     0.357682   
C8       C      0.591910000000     0.767270000000     0.119070000000     0.356378   
C9       C      0.417070000000     0.735630000000     0.887530000000     0.358767   
C10      C      0.356020000000     0.713160000000     0.881950000000     0.356999   
C11      C      0.375070000000     0.740960000000     0.925320000000     0.35528    
C12      C      0.374840000000     0.763990000000     0.864230000000     0.355825   
C13      C      0.413310000000     0.739760000000     0.102050000000     0.356634   
C14      C      0.352290000000     0.715570000000     0.102830000000     0.3561     
C15      C      0.369490000000     0.766040000000     0.122780000000     0.356579   
C16      C      0.376640000000     0.743990000000     0.061100000000     0.356113   
C17      C      0.735160000000     0.418490000000     0.883390000000     0.35636    
C18      C      0.711980000000     0.358670000000     0.885300000000     0.356733   
C19      C      0.764330000000     0.373940000000     0.865800000000     0.360132   
C20      C      0.744660000000     0.382340000000     0.926150000000     0.355465   
C21      C      0.721870000000     0.421240000000     0.098890000000     0.361915   
C22      C      0.706650000000     0.362860000000     0.100940000000     0.360867   
C23      C      0.745350000000     0.382320000000     0.061110000000     0.360908   
C24      C      0.760190000000     0.381390000000     0.119520000000     0.360811   
C25      C      0.731730000000     0.554480000000     0.881440000000     0.356815   
C26      C      0.707260000000     0.615590000000     0.877200000000     0.355473   
C27      C      0.733460000000     0.594660000000     0.920980000000     0.357199   
C28      C      0.758480000000     0.597190000000     0.860190000000     0.355921   
C29      C      0.723380000000     0.556480000000     0.095400000000     0.358212   
C30      C      0.703790000000     0.618580000000     0.099020000000     0.358231   
C31      C      0.754740000000     0.598960000000     0.117080000000     0.357233   
C32      C      0.730420000000     0.597300000000     0.056760000000     0.356484   
C33      C      0.548070000000     0.882850000000     0.244520000000     0.3573     
C34      C      0.609840000000     0.879230000000     0.266420000000     0.356818   
C35      C      0.591550000000     0.861350000000     0.216770000000     0.356828   
C36      C      0.586480000000     0.922850000000     0.239880000000     0.357195   
C37      C      0.548330000000     0.099860000000     0.242730000000     0.357072   
C38      C      0.609180000000     0.102270000000     0.266190000000     0.355968   
C39      C      0.587120000000     0.059230000000     0.239420000000     0.357453   
C40      C      0.591030000000     0.120050000000     0.214660000000     0.356495   
C41      C      0.413150000000     0.099730000000     0.245980000000     0.357968   
C42      C      0.352080000000     0.101970000000     0.269830000000     0.356455   
C43      C      0.368830000000     0.119640000000     0.219190000000     0.356073   
C44      C      0.374770000000     0.058710000000     0.243200000000     0.357476   
C45      C      0.412700000000     0.882130000000     0.246010000000     0.356702   
C46      C      0.352260000000     0.879270000000     0.271040000000     0.355392   
C47      C      0.373640000000     0.922360000000     0.243970000000     0.357289   
C48      C      0.369370000000     0.861800000000     0.218940000000     0.35648    
C49      C      0.415550000000     0.240180000000     0.883560000000     0.356991   
C50      C      0.356630000000     0.262790000000     0.886380000000     0.354876   
C51      C      0.371140000000     0.209960000000     0.864720000000     0.361814   
C52      C      0.378200000000     0.226680000000     0.925040000000     0.355448   
C53      C      0.414210000000     0.243850000000     0.093360000000     0.354946   
C54      C      0.355330000000     0.264230000000     0.101800000000     0.358057   
C55      C      0.371520000000     0.228710000000     0.059350000000     0.356078   
C56      C      0.373730000000     0.212280000000     0.120210000000     0.359608   
C57      C      0.550660000000     0.243970000000     0.883060000000     0.357337   
C58      C      0.612550000000     0.266570000000     0.878990000000     0.356025   
C59      C      0.590980000000     0.239700000000     0.921530000000     0.356743   
C60      C      0.593360000000     0.216900000000     0.859780000000     0.355482   
C61      C      0.549360000000     0.243850000000     0.096310000000     0.357208   
C62      C      0.610600000000     0.267150000000     0.099870000000     0.356734   
C63      C      0.591710000000     0.216570000000     0.119030000000     0.35663    
C64      C      0.587680000000     0.239210000000     0.057300000000     0.356968   
C65      C      0.088090000000     0.418680000000     0.242520000000     0.357098   
C66      C      0.093620000000     0.357050000000     0.265610000000     0.355841   
C67      C      0.050570000000     0.377350000000     0.239390000000     0.356299   
C68      C      0.111560000000     0.374990000000     0.215260000000     0.356429   
C69      C      0.878060000000     0.422250000000     0.244020000000     0.357748   
C70      C      0.871420000000     0.361620000000     0.268460000000     0.357715   
C71      C      0.854940000000     0.381080000000     0.216410000000     0.354924   
C72      C      0.915420000000     0.380710000000     0.240960000000     0.356729   
C73      C      0.875370000000     0.558470000000     0.239980000000     0.357035   
C74      C      0.868200000000     0.619690000000     0.262210000000     0.355138   
C75      C      0.912830000000     0.599340000000     0.234810000000     0.357892   
C76      C      0.851060000000     0.600300000000     0.212330000000     0.356603   
C77      C      0.087730000000     0.555070000000     0.241820000000     0.357372   
C78      C      0.089960000000     0.616420000000     0.265630000000     0.357396   
C79      C      0.109610000000     0.598880000000     0.215180000000     0.356511   
C80      C      0.047990000000     0.593210000000     0.236120000000     0.35589    
C81      C      0.237410000000     0.557210000000     0.886160000000     0.356097   
C82      C      0.258730000000     0.618980000000     0.879780000000     0.356866   
C83      C      0.208460000000     0.598950000000     0.862200000000     0.356702   
C84      C      0.231990000000     0.598000000000     0.923550000000     0.356919   
C85      C      0.233760000000     0.557590000000     0.099380000000     0.356629   
C86      C      0.257480000000     0.618610000000     0.102590000000     0.355827   
C87      C      0.230880000000     0.597570000000     0.059420000000     0.357772   
C88      C      0.205660000000     0.600500000000     0.119800000000     0.356223   
C89      C      0.235770000000     0.421370000000     0.100810000000     0.356733   
C90      C      0.259670000000     0.359910000000     0.104250000000     0.356429   
C91      C      0.209600000000     0.377110000000     0.122240000000     0.356834   
C92      C      0.232690000000     0.382950000000     0.060870000000     0.357741   
C93      C      0.238120000000     0.421110000000     0.882330000000     0.355403   
C94      C      0.262000000000     0.360090000000     0.883220000000     0.355797   
C95      C      0.233410000000     0.384270000000     0.924950000000     0.358969   
C96      C      0.210740000000     0.376550000000     0.864400000000     0.35647    
C97      C      0.878090000000     0.732670000000     0.556250000000     0.358708   
C98      C      0.871220000000     0.709300000000     0.617220000000     0.356922   
C99      C      0.914790000000     0.736990000000     0.598730000000     0.35523    
C100     C      0.853850000000     0.760240000000     0.598660000000     0.355442   
C101     C      0.091420000000     0.734870000000     0.559900000000     0.357176   
C102     C      0.091840000000     0.710800000000     0.621020000000     0.356843   
C103     C      0.110650000000     0.762100000000     0.604380000000     0.357366   
C104     C      0.050050000000     0.739210000000     0.596700000000     0.355942   
C105     C      0.877590000000     0.736120000000     0.420340000000     0.356405   
C106     C      0.871310000000     0.715290000000     0.358190000000     0.356596   
C107     C      0.854300000000     0.764660000000     0.378070000000     0.35613    
C108     C      0.915660000000     0.741020000000     0.380780000000     0.357388   
C109     C      0.090570000000     0.735260000000     0.424080000000     0.356943   
C110     C      0.093180000000     0.711230000000     0.363040000000     0.356581   
C111     C      0.050990000000     0.739350000000     0.384170000000     0.356688   
C112     C      0.111940000000     0.762760000000     0.381630000000     0.356138   
C113     C      0.092010000000     0.416650000000     0.743790000000     0.356025   
C114     C      0.091630000000     0.356380000000     0.719500000000     0.356259   
C115     C      0.113700000000     0.372800000000     0.770390000000     0.359455   
C116     C      0.051810000000     0.378860000000     0.753320000000     0.354899   
C117     C      0.883970000000     0.417240000000     0.733510000000     0.355072   
C118     C      0.876220000000     0.358580000000     0.715540000000     0.364314   
C119     C      0.917800000000     0.374950000000     0.752890000000     0.356033   
C120     C      0.859010000000     0.377590000000     0.769270000000     0.359207   
C121     C      0.879810000000     0.553040000000     0.735270000000     0.356205   
C122     C      0.871430000000     0.614700000000     0.714350000000     0.355791   
C123     C      0.854290000000     0.594620000000     0.764450000000     0.357034   
C124     C      0.915600000000     0.594310000000     0.741480000000     0.358021   
C125     C      0.090800000000     0.552860000000     0.741300000000     0.356799   
C126     C      0.093520000000     0.613810000000     0.716210000000     0.355653   
C127     C      0.050850000000     0.592570000000     0.743410000000     0.356879   
C128     C      0.111580000000     0.596600000000     0.767650000000     0.356412   
C129     C      0.239130000000     0.096690000000     0.424540000000     0.363709   
C130     C      0.257430000000     0.099550000000     0.366130000000     0.360816   
C131     C      0.222810000000     0.055740000000     0.384830000000     0.362125   
C132     C      0.204190000000     0.114320000000     0.380850000000     0.359788   
C133     C      0.237510000000     0.880240000000     0.429580000000     0.357338   
C134     C      0.257070000000     0.878140000000     0.367440000000     0.357509   
C135     C      0.208160000000     0.858210000000     0.386070000000     0.357086   
C136     C      0.227790000000     0.920250000000     0.391950000000     0.357663   
C137     C      0.241760000000     0.874750000000     0.564370000000     0.358133   
C138     C      0.259460000000     0.876610000000     0.622100000000     0.357116   
C139     C      0.221990000000     0.917350000000     0.600650000000     0.364587   
C140     C      0.205160000000     0.858950000000     0.606370000000     0.363029   
C141     C      0.235430000000     0.092740000000     0.559680000000     0.356965   
C142     C      0.257120000000     0.094960000000     0.620680000000     0.357978   
C143     C      0.206610000000     0.114790000000     0.602100000000     0.358024   
C144     C      0.225970000000     0.052820000000     0.597220000000     0.355709   
C145     C      0.088230000000     0.239730000000     0.424020000000     0.357989   
C146     C      0.094760000000     0.262770000000     0.363010000000     0.356109   
C147     C      0.110480000000     0.211820000000     0.381370000000     0.356476   
C148     C      0.049890000000     0.236010000000     0.383020000000     0.35752    
C149     C      0.874580000000     0.238490000000     0.423220000000     0.356689   
C150     C      0.873050000000     0.263910000000     0.362630000000     0.355247   
C151     C      0.914610000000     0.235900000000     0.384490000000     0.357808   
C152     C      0.853880000000     0.212240000000     0.378510000000     0.357719   
C153     C      0.874670000000     0.237940000000     0.559090000000     0.356311   
C154     C      0.873350000000     0.262170000000     0.620090000000     0.357404   
C155     C      0.854100000000     0.211250000000     0.602620000000     0.356712   
C156     C      0.915430000000     0.233330000000     0.596880000000     0.356943   
C157     C      0.087880000000     0.240070000000     0.559940000000     0.35845    
C158     C      0.093430000000     0.262550000000     0.621220000000     0.358099   
C159     C      0.050560000000     0.235100000000     0.601900000000     0.354939   
C160     C      0.111000000000     0.211120000000     0.602270000000     0.35512    
C161     C      0.730480000000     0.878950000000     0.557700000000     0.356668   
C162     C      0.707130000000     0.872980000000     0.618790000000     0.355526   
C163     C      0.756930000000     0.855150000000     0.599930000000     0.356475   
C164     C      0.734530000000     0.917280000000     0.598370000000     0.357316   
C165     C      0.731740000000     0.093760000000     0.557560000000     0.356274   
C166     C      0.707860000000     0.096360000000     0.618290000000     0.355215   
C167     C      0.735080000000     0.053540000000     0.596660000000     0.358083   
C168     C      0.759600000000     0.114230000000     0.601600000000     0.357536   
C169     C      0.729700000000     0.096280000000     0.421650000000     0.357542   
C170     C      0.706400000000     0.101020000000     0.360210000000     0.356803   
C171     C      0.756210000000     0.118710000000     0.377650000000     0.356483   
C172     C      0.733310000000     0.057150000000     0.382340000000     0.356815   
C173     C      0.730900000000     0.880830000000     0.421790000000     0.357532   
C174     C      0.706200000000     0.877700000000     0.361350000000     0.356014   
C175     C      0.733370000000     0.920860000000     0.382080000000     0.357578   
C176     C      0.758400000000     0.860420000000     0.378540000000     0.35607    
C177     C      0.417890000000     0.880240000000     0.740060000000     0.356731   
C178     C      0.356600000000     0.877760000000     0.716430000000     0.356839   
C179     C      0.374770000000     0.858440000000     0.766590000000     0.356314   
C180     C      0.380000000000     0.920320000000     0.744540000000     0.356619   
C181     C      0.415240000000     0.093480000000     0.736390000000     0.356688   
C182     C      0.354400000000     0.100080000000     0.714530000000     0.35781    
C183     C      0.373990000000     0.056280000000     0.742770000000     0.355451   
C184     C      0.373250000000     0.117120000000     0.765900000000     0.35576    
C185     C      0.553210000000     0.882860000000     0.740730000000     0.356499   
C186     C      0.613640000000     0.880470000000     0.716220000000     0.355116   
C187     C      0.591810000000     0.923240000000     0.743390000000     0.3573     
C188     C      0.597330000000     0.862230000000     0.767810000000     0.357845   
C189     C      0.550660000000     0.096550000000     0.736100000000     0.357025   
C190     C      0.611230000000     0.103740000000     0.712600000000     0.355471   
C191     C      0.592620000000     0.121650000000     0.762790000000     0.356407   
C192     C      0.592140000000     0.059450000000     0.740990000000     0.357318   
C193     C      0.603830000000     0.971280000000     0.756770000000    -0.0635524  
C194     C      0.594450000000     0.981370000000     0.743740000000     0.0222517  
C195     C      0.584060000000     0.972110000000     0.730880000000    -0.0642302  
C196     C      0.583290000000     0.953280000000     0.730840000000     0.0216227  
C197     C      0.592770000000     0.943190000000     0.743740000000    -0.0972982  
C198     C      0.602990000000     0.952350000000     0.756780000000     0.0210476  
C199     C      0.595320000000     0.001460000000     0.743360000000     0.0233324  
C200     C      0.594730000000     0.011670000000     0.759370000000    -0.0640808  
C201     C      0.594220000000     0.030590000000     0.758720000000     0.0217162  
C202     C      0.594200000000     0.039620000000     0.742060000000    -0.0989936  
C203     C      0.595380000000     0.029450000000     0.726130000000     0.0222932  
C204     C      0.596030000000     0.010620000000     0.726770000000    -0.0648963  
C205     C      0.462640000000     0.107610000000     0.724000000000    -0.0637935  
C206     C      0.472940000000     0.095260000000     0.734090000000     0.0226812  
C207     C      0.463990000000     0.081960000000     0.744230000000    -0.0644095  
C208     C      0.445290000000     0.081360000000     0.744770000000     0.0218157  
C209     C      0.435020000000     0.093910000000     0.735010000000    -0.0986302  
C210     C      0.443840000000     0.106900000000     0.724420000000     0.0214761  
C211     C      0.492900000000     0.096330000000     0.734480000000     0.022842   
C212     C      0.502830000000     0.100380000000     0.718850000000    -0.0638695  
C213     C      0.521640000000     0.100720000000     0.719340000000     0.021229   
C214     C      0.530840000000     0.096920000000     0.735440000000    -0.0980175  
C215     C      0.520920000000     0.093170000000     0.751080000000     0.0219887  
C216     C      0.502200000000     0.092980000000     0.750640000000    -0.0645423  
C217     C      0.385360000000     0.969520000000     0.732190000000    -0.0647463  
C218     C      0.375340000000     0.978260000000     0.745680000000     0.0231528  
C219     C      0.367290000000     0.967750000000     0.759270000000    -0.064173   
C220     C      0.368960000000     0.948880000000     0.759120000000     0.0213653  
C221     C      0.378690000000     0.940220000000     0.745380000000    -0.0982873  
C222     C      0.386960000000     0.950750000000     0.732010000000     0.0219008  
C223     C      0.373390000000     0.998270000000     0.745360000000     0.0216739  
C224     C      0.374590000000     0.008530000000     0.761280000000    -0.0630151  
C225     C      0.374160000000     0.027450000000     0.760590000000     0.0209521  
C226     C      0.372590000000     0.036410000000     0.743970000000    -0.0964171  
C227     C      0.370730000000     0.026150000000     0.728160000000     0.0208814  
C228     C      0.371040000000     0.007310000000     0.728860000000    -0.0631743  
C229     C      0.466040000000     0.876840000000     0.755550000000    -0.064327   
C230     C      0.475580000000     0.878100000000     0.739240000000     0.0228494  
C231     C      0.465860000000     0.879040000000     0.722990000000    -0.0637365  
C232     C      0.447050000000     0.879250000000     0.723140000000     0.0214831  
C233     C      0.437640000000     0.878690000000     0.739540000000    -0.0972043  
C234     C      0.447320000000     0.877270000000     0.755710000000     0.0219979  
C235     C      0.495550000000     0.879150000000     0.739380000000     0.0228057  
C236     C      0.504390000000     0.888900000000     0.753030000000    -0.0644179  
C237     C      0.523080000000     0.889930000000     0.753440000000     0.022049   
C238     C      0.533440000000     0.881420000000     0.740120000000    -0.0979211  
C239     C      0.524720000000     0.871810000000     0.726330000000     0.0211244  
C240     C      0.505940000000     0.870640000000     0.725990000000    -0.0637695  
C241     C      0.721930000000     0.969790000000     0.390770000000    -0.0646988  
C242     C      0.734430000000     0.978980000000     0.379920000000     0.0231018  
C243     C      0.746810000000     0.968810000000     0.369770000000    -0.0640295  
C244     C      0.746550000000     0.949870000000     0.370400000000     0.0213187  
C245     C      0.733880000000     0.940800000000     0.381110000000    -0.0978327  
C246     C      0.721600000000     0.950970000000     0.391280000000     0.0222856  
C247     C      0.734380000000     0.999100000000     0.379370000000     0.0220177  
C248     C      0.718020000000     0.008580000000     0.379820000000    -0.063882   
C249     C      0.717770000000     0.027400000000     0.380610000000     0.0219076  
C250     C      0.733870000000     0.037260000000     0.380730000000    -0.0978214  
C251     C      0.750260000000     0.027930000000     0.379660000000     0.0211406  
C252     C      0.750520000000     0.009000000000     0.379050000000    -0.0631456  
C253     C      0.633920000000     0.104150000000     0.666960000000    -0.0636373  
C254     C      0.652070000000     0.106340000000     0.671780000000     0.0227151  
C255     C      0.656350000000     0.109300000000     0.690020000000    -0.0641145  
C256     C      0.642970000000     0.109100000000     0.703200000000     0.0213866  
C257     C      0.624970000000     0.106160000000     0.698440000000    -0.0970008  
C258     C      0.620490000000     0.104130000000     0.680160000000     0.0212973  
C259     C      0.666560000000     0.104480000000     0.658080000000     0.0226097  
C260     C      0.682570000000     0.095380000000     0.662440000000    -0.063941   
C261     C      0.696000000000     0.092970000000     0.649550000000     0.021113   
C262     C      0.693720000000     0.099460000000     0.631920000000    -0.0968331  
C263     C      0.677810000000     0.108630000000     0.627480000000     0.0209446  
C264     C      0.664370000000     0.111150000000     0.640440000000    -0.0636333  
C265     C      0.743140000000     0.087080000000     0.508430000000    -0.0641924  
C266     C      0.729620000000     0.097020000000     0.499660000000     0.0225868  
C267     C      0.716560000000     0.105830000000     0.510210000000    -0.0635303  
C268     C      0.717140000000     0.104800000000     0.529070000000     0.0208792  
C269     C      0.730840000000     0.095040000000     0.537700000000    -0.0976969  
C270     C      0.743800000000     0.086190000000     0.527180000000     0.0218778  
C271     C      0.729310000000     0.098030000000     0.479610000000     0.0229825  
C272     C      0.745510000000     0.099050000000     0.469910000000    -0.0646583  
C273     C      0.745510000000     0.098690000000     0.451120000000     0.0224799  
C274     C      0.729320000000     0.097580000000     0.441520000000    -0.0984933  
C275     C      0.713050000000     0.097220000000     0.451080000000     0.0215628  
C276     C      0.713040000000     0.097370000000     0.469970000000    -0.063875   
C277     C      0.685000000000     0.867900000000     0.664320000000    -0.0641455  
C278     C      0.666770000000     0.870480000000     0.660080000000     0.0227927  
C279     C      0.661830000000     0.872270000000     0.641850000000    -0.063725   
C280     C      0.674890000000     0.872260000000     0.628300000000     0.0214958  
C281     C      0.693150000000     0.870610000000     0.632710000000    -0.0971878  
C282     C      0.698050000000     0.868080000000     0.650800000000     0.0214664  
C283     C      0.653170000000     0.872360000000     0.674670000000     0.0225869  
C284     C      0.635680000000     0.865410000000     0.672660000000    -0.0635867  
C285     C      0.622810000000     0.867950000000     0.686170000000     0.0209992  
C286     C      0.627190000000     0.877390000000     0.702000000000    -0.096728   
C287     C      0.644670000000     0.884150000000     0.704110000000     0.0210929  
C288     C      0.657470000000     0.881740000000     0.690590000000    -0.0639087  
C289     C      0.745910000000     0.879160000000     0.509250000000    -0.0644464  
C290     C      0.729680000000     0.877210000000     0.499760000000     0.0228182  
C291     C      0.713660000000     0.875020000000     0.509600000000    -0.0635934  
C292     C      0.713860000000     0.875240000000     0.528480000000     0.0212524  
C293     C      0.730060000000     0.877800000000     0.537840000000    -0.0976503  
C294     C      0.746080000000     0.879590000000     0.528040000000     0.0221153  
C295     C      0.729590000000     0.878070000000     0.479710000000     0.0228107  
C296     C      0.741090000000     0.890170000000     0.470720000000    -0.0644988  
C297     C      0.741490000000     0.890890000000     0.451960000000     0.0224463  
C298     C      0.730250000000     0.879720000000     0.441650000000    -0.0981281  
C299     C      0.718500000000     0.867800000000     0.450500000000     0.0212399  
C300     C      0.718220000000     0.866940000000     0.469370000000    -0.0636923  
C301     C      0.719590000000     0.965950000000     0.601000000000    -0.064848   
C302     C      0.736000000000     0.975350000000     0.600720000000     0.0232162  
C303     C      0.752090000000     0.965360000000     0.600750000000    -0.0640594  
C304     C      0.751730000000     0.946420000000     0.600480000000     0.0215323  
C305     C      0.735260000000     0.937160000000     0.600080000000    -0.0991281  
C306     C      0.719230000000     0.947120000000     0.600590000000     0.0223493  
C307     C      0.736120000000     0.995440000000     0.599700000000     0.0216048  
C308     C      0.723450000000     0.004460000000     0.588890000000    -0.063255   
C309     C      0.723170000000     0.023280000000     0.588000000000     0.0214269  
C310     C      0.735630000000     0.033600000000     0.597770000000    -0.0972729  
C311     C      0.748480000000     0.024680000000     0.608420000000     0.0209204  
C312     C      0.748710000000     0.005770000000     0.609390000000    -0.0626742  
C313     C      0.804990000000     0.137190000000     0.603260000000    -0.0641254  
C314     C      0.800230000000     0.155060000000     0.607750000000     0.023036   
C315     C      0.782100000000     0.158950000000     0.611390000000    -0.0646075  
C316     C      0.768980000000     0.145570000000     0.609780000000     0.0223388  
C317     C      0.773700000000     0.127900000000     0.604760000000    -0.0996929  
C318     C      0.791860000000     0.123730000000     0.601890000000     0.022083   
C319     C      0.813920000000     0.169760000000     0.607630000000     0.022663   
C320     C      0.831650000000     0.166550000000     0.613370000000    -0.0637375  
C321     C      0.844680000000     0.180130000000     0.612100000000     0.0214164  
C322     C      0.840210000000     0.197230000000     0.605210000000    -0.0972853  
C323     C      0.822430000000     0.200610000000     0.599920000000     0.0214415  
C324     C      0.809470000000     0.187020000000     0.601020000000    -0.063996   
C325     C      0.964340000000     0.244530000000     0.589570000000    -0.0650484  
C326     C      0.973030000000     0.232330000000     0.601200000000     0.0238156  
C327     C      0.962560000000     0.219880000000     0.610970000000    -0.0645389  
C328     C      0.943810000000     0.219930000000     0.609400000000     0.0215761  
C329     C      0.935210000000     0.232460000000     0.598070000000    -0.098911   
C330     C      0.945680000000     0.244650000000     0.588090000000     0.0221473  
C331     C      0.992920000000     0.232830000000     0.603030000000     0.0198545  
C332     C      0.003060000000     0.216800000000     0.604050000000    -0.0608231  
C333     C      0.021860000000     0.217480000000     0.604350000000     0.0198421  
C334     C      0.030820000000     0.234170000000     0.603550000000    -0.0953003  
C335     C      0.020690000000     0.250160000000     0.603210000000     0.0203634  
C336     C      0.001980000000     0.249510000000     0.603050000000    -0.0614937  
C337     C      0.800260000000     0.141150000000     0.365190000000    -0.0637762  
C338     C      0.797780000000     0.158700000000     0.372110000000     0.0226081  
C339     C      0.781190000000     0.163060000000     0.380080000000    -0.0640308  
C340     C      0.767570000000     0.150190000000     0.381370000000     0.0215796  
C341     C      0.770220000000     0.132570000000     0.374890000000    -0.0972838  
C342     C      0.786620000000     0.128200000000     0.366610000000     0.0212822  
C343     C      0.812580000000     0.172230000000     0.371850000000     0.0231005  
C344     C      0.830430000000     0.166970000000     0.375250000000    -0.0641308  
C345     C      0.844030000000     0.179930000000     0.376740000000     0.0220335  
C346     C      0.840020000000     0.198400000000     0.375050000000    -0.099472   
C347     C      0.822360000000     0.203630000000     0.371020000000     0.0224116  
C348     C      0.808820000000     0.190690000000     0.369320000000    -0.0647434  
C349     C      0.881280000000     0.225570000000     0.471990000000    -0.0644028  
C350     C      0.871670000000     0.239100000000     0.481170000000     0.0228097  
C351     C      0.862940000000     0.252570000000     0.471020000000    -0.0636682  
C352     C      0.863810000000     0.252460000000     0.452150000000     0.021005   
C353     C      0.873320000000     0.238810000000     0.443090000000    -0.097837   
C354     C      0.882010000000     0.225370000000     0.453210000000     0.0219704  
C355     C      0.871070000000     0.239080000000     0.501240000000     0.0227117  
C356     C      0.870220000000     0.222640000000     0.510740000000    -0.064208   
C357     C      0.871130000000     0.222370000000     0.529520000000     0.0217715  
C358     C      0.872630000000     0.238530000000     0.539300000000    -0.0968214  
C359     C      0.872780000000     0.255050000000     0.529950000000     0.0213542  
C360     C      0.872090000000     0.255320000000     0.511090000000    -0.0635398  
C361     C      0.001640000000     0.251380000000     0.380350000000    -0.0619511  
C362     C      0.992240000000     0.234900000000     0.380530000000     0.0201727  
C363     C      0.002070000000     0.218650000000     0.380440000000    -0.0613388  
C364     C      0.020870000000     0.218920000000     0.380760000000     0.0205244  
C365     C      0.030150000000     0.235450000000     0.381260000000    -0.0984092  
C366     C      0.020360000000     0.251650000000     0.380800000000     0.020979   
C367     C      0.972290000000     0.234830000000     0.381510000000     0.0237682  
C368     C      0.963350000000     0.247530000000     0.392380000000    -0.0649636  
C369     C      0.944650000000     0.247800000000     0.393270000000     0.0221128  
C370     C      0.934410000000     0.235300000000     0.383440000000    -0.0975217  
C371     C      0.943260000000     0.222420000000     0.372720000000     0.0216126  
C372     C      0.962040000000     0.222200000000     0.371740000000    -0.0644327  
C373     C      0.093580000000     0.257080000000     0.471860000000    -0.0638268  
C374     C      0.089890000000     0.241410000000     0.481960000000     0.02279    
C375     C      0.086420000000     0.225160000000     0.472740000000    -0.0646772  
C376     C      0.086040000000     0.224700000000     0.453960000000     0.0223742  
C377     C      0.089340000000     0.240400000000     0.443890000000    -0.0986726  
C378     C      0.093360000000     0.256570000000     0.452980000000     0.0214445  
C379     C      0.089170000000     0.241870000000     0.502000000000     0.0230085  
C380     C      0.101530000000     0.252090000000     0.512120000000    -0.0641275  
C381     C      0.101040000000     0.251810000000     0.531010000000     0.02177    
C382     C      0.088250000000     0.241220000000     0.540080000000    -0.10032    
C383     C      0.075730000000     0.231300000000     0.529970000000     0.0228429  
C384     C      0.076110000000     0.231710000000     0.511200000000    -0.0649536  
C385     C      0.155930000000     0.188330000000     0.608990000000    -0.0642445  
C386     C      0.151560000000     0.169950000000     0.606790000000     0.0227209  
C387     C      0.133430000000     0.165220000000     0.604090000000    -0.0636087  
C388     C      0.120130000000     0.178560000000     0.603190000000     0.0211208  
C389     C      0.124710000000     0.196910000000     0.604690000000    -0.0980804  
C390     C      0.142690000000     0.201650000000     0.607790000000     0.0220713  
C391     C      0.165930000000     0.155900000000     0.606480000000     0.0228593  
C392     C      0.182760000000     0.159740000000     0.598720000000    -0.064277   
C393     C      0.196070000000     0.146490000000     0.597760000000     0.0222095  
C394     C      0.192830000000     0.128990000000     0.604270000000    -0.0985724  
C395     C      0.176140000000     0.125080000000     0.612170000000     0.0217143  
C396     C      0.162870000000     0.138430000000     0.613370000000    -0.0638451  
C397     C      0.282590000000     0.092500000000     0.664680000000    -0.0646474  
C398     C      0.298530000000     0.101830000000     0.660550000000     0.0228933  
C399     C      0.300560000000     0.109230000000     0.643190000000    -0.0644111  
C400     C      0.287050000000     0.107160000000     0.630240000000     0.0220289  
C401     C      0.271230000000     0.097700000000     0.634400000000    -0.100626   
C402     C      0.269100000000     0.090500000000     0.651780000000     0.0218878  
C403     C      0.313120000000     0.103230000000     0.674180000000     0.0227303  
C404     C      0.309000000000     0.105770000000     0.692510000000    -0.0644337  
C405     C      0.322510000000     0.105340000000     0.705550000000     0.0216526  
C406     C      0.340480000000     0.102500000000     0.700560000000    -0.0981204  
C407     C      0.344760000000     0.100750000000     0.682200000000     0.02197    
C408     C      0.331220000000     0.101070000000     0.669140000000    -0.0640063  
C409     C      0.283810000000     0.868480000000     0.666020000000    -0.0645912  
C410     C      0.301690000000     0.872460000000     0.661410000000     0.0228133  
C411     C      0.305730000000     0.876720000000     0.643370000000    -0.0638853  
C412     C      0.292090000000     0.877590000000     0.630410000000     0.0209246  
C413     C      0.274160000000     0.874310000000     0.635270000000    -0.0985158  
C414     C      0.270200000000     0.869490000000     0.653130000000     0.0227031  
C415     C      0.315810000000     0.873080000000     0.675600000000     0.0227871  
C416     C      0.311850000000     0.880430000000     0.692620000000    -0.0645192  
C417     C      0.325060000000     0.881600000000     0.705900000000     0.021683   
C418     C      0.342600000000     0.875560000000     0.702480000000    -0.0988899  
C419     C      0.346620000000     0.868080000000     0.685550000000     0.0213573  
C420     C      0.333350000000     0.866840000000     0.672230000000    -0.0641319  
C421     C      0.214930000000     0.965130000000     0.584170000000    -0.0662205  
C422     C      0.217470000000     0.975190000000     0.600020000000     0.0237658  
C423     C      0.219830000000     0.966000000000     0.616430000000    -0.0655775  
C424     C      0.220600000000     0.947100000000     0.616810000000     0.0229691  
C425     C      0.218820000000     0.937080000000     0.600810000000    -0.103151   
C426     C      0.215510000000     0.946270000000     0.584580000000     0.0238162  
C427     C      0.219020000000     0.995160000000     0.599150000000     0.0214673  
C428     C      0.230250000000     0.003150000000     0.586190000000    -0.0635677  
C429     C      0.232430000000     0.021870000000     0.585620000000     0.0213836  
C430     C      0.223280000000     0.033050000000     0.597840000000    -0.0980052  
C431     C      0.211840000000     0.025120000000     0.610680000000     0.021105   
C432     C      0.209850000000     0.006300000000     0.611430000000    -0.0636     
C433     C      0.226490000000     0.874030000000     0.478890000000    -0.0647617  
C434     C      0.243610000000     0.873740000000     0.486860000000     0.0228617  
C435     C      0.258830000000     0.875520000000     0.475800000000    -0.0644304  
C436     C      0.256930000000     0.877460000000     0.457110000000     0.0216201  
C437     C      0.239780000000     0.877900000000     0.449220000000    -0.0987478  
C438     C      0.224600000000     0.876160000000     0.460310000000     0.0221288  
C439     C      0.245280000000     0.872220000000     0.506740000000     0.0227629  
C440     C      0.256420000000     0.884100000000     0.516420000000    -0.0642816  
C441     C      0.256030000000     0.884310000000     0.535290000000     0.0219114  
C442     C      0.244570000000     0.872570000000     0.544770000000    -0.0979634  
C443     C      0.234290000000     0.859960000000     0.535080000000     0.0215439  
C444     C      0.234610000000     0.859820000000     0.516270000000    -0.0645655  
C445     C      0.132060000000     0.166890000000     0.369690000000    -0.0639472  
C446     C      0.149710000000     0.169510000000     0.375910000000     0.022698   
C447     C      0.154340000000     0.186310000000     0.383480000000    -0.0641941  
C448     C      0.141650000000     0.200090000000     0.384920000000     0.0215028  
C449     C      0.123990000000     0.197420000000     0.378900000000    -0.0970803  
C450     C      0.119320000000     0.180720000000     0.371160000000     0.0212741  
C451     C      0.163230000000     0.154740000000     0.375140000000     0.0231388  
C452     C      0.158550000000     0.136850000000     0.379570000000    -0.063926   
C453     C      0.171750000000     0.123410000000     0.380700000000     0.021473   
C454     C      0.189850000000     0.127680000000     0.377530000000    -0.0974563  
C455     C      0.194390000000     0.145340000000     0.372330000000     0.0235945  
C456     C      0.181240000000     0.158690000000     0.371060000000    -0.0648186  
C457     C      0.209020000000     0.007770000000     0.396270000000    -0.0642505  
C458     C      0.220360000000     0.997760000000     0.384880000000     0.0221522  
C459     C      0.231120000000     0.006990000000     0.372350000000    -0.064328   
C460     C      0.231200000000     0.025840000000     0.371780000000     0.022369   
C461     C      0.220600000000     0.035900000000     0.383800000000    -0.101261   
C462     C      0.209190000000     0.026700000000     0.395790000000     0.0222067  
C463     C      0.221960000000     0.977860000000     0.386780000000     0.0229244  
C464     C      0.239040000000     0.969840000000     0.387470000000    -0.0648941  
C465     C      0.240850000000     0.951160000000     0.389330000000     0.0220713  
C466     C      0.225610000000     0.940040000000     0.390400000000    -0.0987269  
C467     C      0.208480000000     0.948010000000     0.389760000000     0.0215688  
C468     C      0.206670000000     0.966790000000     0.388090000000    -0.0644434  
C469     C      0.231890000000     0.111500000000     0.472670000000    -0.065681   
C470     C      0.242160000000     0.098800000000     0.482260000000     0.0235145  
C471     C      0.252830000000     0.086460000000     0.472630000000    -0.0653169  
C472     C      0.252490000000     0.086220000000     0.453760000000     0.0231623  
C473     C      0.241550000000     0.098390000000     0.444230000000    -0.102532   
C474     C      0.231610000000     0.111320000000     0.453870000000     0.0232662  
C475     C      0.240720000000     0.097710000000     0.502180000000     0.0223129  
C476     C      0.256040000000     0.095460000000     0.513020000000    -0.0639257  
C477     C      0.254400000000     0.094060000000     0.531770000000     0.0213392  
C478     C      0.237390000000     0.094660000000     0.539960000000    -0.0965905  
C479     C      0.222110000000     0.096890000000     0.529120000000     0.0213334  
C480     C      0.223760000000     0.098460000000     0.510450000000    -0.0641749  
C481     C      0.963180000000     0.596270000000     0.759580000000    -0.0643352  
C482     C      0.973220000000     0.597180000000     0.743540000000     0.0237643  
C483     C      0.964040000000     0.598290000000     0.727020000000    -0.0650064  
C484     C      0.945330000000     0.597730000000     0.726460000000     0.0221854  
C485     C      0.935320000000     0.596230000000     0.742420000000    -0.0979342  
C486     C      0.944380000000     0.595840000000     0.759030000000     0.0216458  
C487     C      0.993170000000     0.596130000000     0.743810000000     0.0199687  
C488     C      0.003320000000     0.605160000000     0.757050000000    -0.0611479  
C489     C      0.022110000000     0.604050000000     0.757030000000     0.0198823  
C490     C      0.031060000000     0.593910000000     0.743770000000    -0.0970369  
C491     C      0.020900000000     0.584830000000     0.730640000000     0.0206528  
C492     C      0.002220000000     0.585870000000     0.730700000000    -0.0617344  
C493     C      0.877050000000     0.335810000000     0.669820000000    -0.0647383  
C494     C      0.869860000000     0.318700000000     0.673870000000     0.0233418  
C495     C      0.863750000000     0.315310000000     0.691480000000    -0.065182   
C496     C      0.865400000000     0.328460000000     0.704880000000     0.0231976  
C497     C      0.873150000000     0.345320000000     0.700970000000    -0.100762   
C498     C      0.878670000000     0.349000000000     0.683240000000     0.0232991  
C499     C      0.869690000000     0.304090000000     0.660100000000     0.0226628  
C500     C      0.865250000000     0.307740000000     0.642030000000    -0.0642094  
C501     C      0.866040000000     0.294050000000     0.629030000000     0.0214463  
C502     C      0.871330000000     0.276470000000     0.633850000000    -0.0993353  
C503     C      0.875450000000     0.272760000000     0.651940000000     0.0218062  
C504     C      0.874640000000     0.286400000000     0.664910000000    -0.0645281  
C505     C      0.889180000000     0.503930000000     0.745490000000    -0.0645051  
C506     C      0.881810000000     0.495120000000     0.730420000000     0.0225959  
C507     C      0.873490000000     0.505540000000     0.716940000000    -0.0640585  
C508     C      0.872800000000     0.524410000000     0.718430000000     0.021068   
C509     C      0.880280000000     0.533150000000     0.733490000000    -0.0978508  
C510     C      0.888410000000     0.522700000000     0.747010000000     0.0214492  
C511     C      0.882790000000     0.475110000000     0.729100000000     0.022626   
C512     C      0.898640000000     0.466060000000     0.734000000000    -0.0647142  
C513     C      0.899160000000     0.447230000000     0.734700000000     0.0213504  
C514     C      0.883850000000     0.436980000000     0.730480000000    -0.0985836  
C515     C      0.868220000000     0.445940000000     0.724730000000     0.0210996  
C516     C      0.867700000000     0.464860000000     0.724020000000    -0.0641407  
C517     C      0.087010000000     0.312880000000     0.693230000000    -0.0644603  
C518     C      0.096260000000     0.316830000000     0.677190000000     0.0227256  
C519     C      0.104100000000     0.334040000000     0.675190000000    -0.0640195  
C520     C      0.102680000000     0.346950000000     0.688920000000     0.0213244  
C521     C      0.093430000000     0.342890000000     0.704920000000    -0.09962    
C522     C      0.085670000000     0.325710000000     0.706940000000     0.0214915  
C523     C      0.097250000000     0.303100000000     0.662550000000     0.0228281  
C524     C      0.099240000000     0.284660000000     0.666760000000    -0.0643457  
C525     C      0.098480000000     0.271550000000     0.653250000000     0.0217386  
C526     C      0.095910000000     0.276570000000     0.635180000000    -0.0974077  
C527     C      0.094700000000     0.295010000000     0.630810000000     0.0217755  
C528     C      0.095310000000     0.308150000000     0.644370000000    -0.0639853  
C529     C      0.966240000000     0.359820000000     0.750400000000    -0.0645671  
C530     C      0.974870000000     0.373540000000     0.760200000000     0.0236016  
C531     C      0.964460000000     0.386660000000     0.769010000000    -0.0652035  
C532     C      0.945750000000     0.386480000000     0.767490000000     0.0224107  
C533     C      0.937170000000     0.373370000000     0.756840000000    -0.0960007  
C534     C      0.947540000000     0.359830000000     0.748590000000     0.0212989  
C535     C      0.994670000000     0.375110000000     0.759810000000     0.0201436  
C536     C      0.005670000000     0.360360000000     0.764300000000    -0.0620972  
C537     C      0.024360000000     0.361730000000     0.762790000000     0.0208424  
C538     C      0.032270000000     0.377720000000     0.756350000000    -0.0975007  
C539     C      0.021250000000     0.392500000000     0.752030000000     0.0210094  
C540     C      0.002640000000     0.391270000000     0.753920000000    -0.062006   
C541     C      0.097580000000     0.465420000000     0.757810000000    -0.0640838  
C542     C      0.095070000000     0.474670000000     0.741440000000     0.0225534  
C543     C      0.092560000000     0.464550000000     0.725580000000    -0.0634351  
C544     C      0.091990000000     0.445640000000     0.726200000000     0.0211282  
C545     C      0.093860000000     0.436510000000     0.742700000000    -0.0957659  
C546     C      0.096920000000     0.446580000000     0.758440000000     0.0211023  
C547     C      0.094250000000     0.494770000000     0.741210000000     0.0227785  
C548     C      0.085310000000     0.504030000000     0.755110000000    -0.0644486  
C549     C      0.084350000000     0.522850000000     0.755100000000     0.021707   
C550     C      0.092230000000     0.532930000000     0.741140000000    -0.0976808  
C551     C      0.101130000000     0.523770000000     0.727160000000     0.0209232  
C552     C      0.102130000000     0.504850000000     0.727190000000    -0.0637331  
C553     C      0.165060000000     0.834800000000     0.372100000000    -0.0638357  
C554     C      0.167480000000     0.817410000000     0.379410000000     0.0228654  
C555     C      0.183690000000     0.813490000000     0.388330000000    -0.0642554  
C556     C      0.197030000000     0.826640000000     0.390090000000     0.0216335  
C557     C      0.194430000000     0.844090000000     0.383120000000    -0.0981829  
C558     C      0.178370000000     0.848030000000     0.374000000000     0.0214209  
C559     C      0.153000000000     0.803540000000     0.378380000000     0.022643   
C560     C      0.134840000000     0.808450000000     0.380380000000    -0.0636384  
C561     C      0.121390000000     0.795240000000     0.380820000000     0.0212889  
C562     C      0.125830000000     0.776850000000     0.379450000000    -0.0977718  
C563     C      0.143870000000     0.771940000000     0.376920000000     0.0216687  
C564     C      0.157270000000     0.785130000000     0.376270000000    -0.0640825  
C565     C      0.830820000000     0.808590000000     0.366190000000    -0.0636926  
C566     C      0.813640000000     0.805750000000     0.373570000000     0.0227519  
C567     C      0.809970000000     0.789110000000     0.381990000000    -0.0642907  
C568     C      0.823100000000     0.775730000000     0.383070000000     0.0218152  
C569     C      0.840310000000     0.778660000000     0.375940000000    -0.0975269  
C570     C      0.844050000000     0.795190000000     0.367410000000     0.0211621  
C571     C      0.799660000000     0.820150000000     0.373120000000     0.022873   
C572     C      0.804230000000     0.838410000000     0.375870000000    -0.0637739  
C573     C      0.790860000000     0.851650000000     0.377030000000     0.021437   
C574     C      0.772670000000     0.846870000000     0.375630000000    -0.0980172  
C575     C      0.768120000000     0.828770000000     0.372280000000     0.0221657  
C576     C      0.781450000000     0.815590000000     0.370920000000    -0.0644778  
C577     C      0.963720000000     0.757990000000     0.379200000000    -0.0642216  
C578     C      0.973400000000     0.741630000000     0.379170000000     0.0237007  
C579     C      0.963820000000     0.725260000000     0.378640000000    -0.065034   
C580     C      0.945100000000     0.725180000000     0.378870000000     0.0223898  
C581     C      0.935450000000     0.741460000000     0.379430000000    -0.0983286  
C582     C      0.944900000000     0.757900000000     0.379280000000     0.0214612  
C583     C      0.993340000000     0.741440000000     0.380420000000     0.0199314  
C584     C      0.003930000000     0.754070000000     0.370990000000    -0.0609501  
C585     C      0.022710000000     0.753520000000     0.372190000000     0.0197905  
C586     C      0.031220000000     0.740310000000     0.382780000000    -0.0967426  
C587     C      0.020640000000     0.727820000000     0.392280000000     0.0207188  
C588     C      0.001970000000     0.728430000000     0.391180000000    -0.0616549  
C589     C      0.155230000000     0.786440000000     0.605880000000    -0.0640036  
C590     C      0.150150000000     0.804050000000     0.610920000000     0.0225743  
C591     C      0.131930000000     0.807510000000     0.614610000000    -0.0637822  
C592     C      0.119090000000     0.793800000000     0.612880000000     0.0213974  
C593     C      0.124220000000     0.776330000000     0.607520000000    -0.0977291  
C594     C      0.142440000000     0.772740000000     0.604280000000     0.0214879  
C595     C      0.163760000000     0.818790000000     0.611500000000     0.0233289  
C596     C      0.181340000000     0.815250000000     0.617470000000    -0.0647832  
C597     C      0.194650000000     0.828490000000     0.616260000000     0.0236203  
C598     C      0.190650000000     0.845660000000     0.609260000000    -0.0988832  
C599     C      0.172930000000     0.849550000000     0.604070000000     0.0224395  
C600     C      0.159630000000     0.836220000000     0.605100000000    -0.0642698  
C601     C      0.087190000000     0.685240000000     0.664860000000    -0.0643546  
C602     C      0.096760000000     0.669230000000     0.661350000000     0.0227774  
C603     C      0.105000000000     0.667120000000     0.644400000000    -0.0639114  
C604     C      0.103580000000     0.680660000000     0.631270000000     0.0212947  
C605     C      0.093960000000     0.696590000000     0.634870000000    -0.0987667  
C606     C      0.085880000000     0.698770000000     0.651830000000     0.0215916  
C607     C      0.097630000000     0.654740000000     0.675260000000     0.0227493  
C608     C      0.099000000000     0.659240000000     0.693630000000    -0.0643161  
C609     C      0.098100000000     0.645870000000     0.706860000000     0.0218807  
C610     C      0.096030000000     0.627630000000     0.702060000000    -0.0974636  
C611     C      0.095450000000     0.622960000000     0.683720000000     0.0211785  
C612     C      0.096170000000     0.636390000000     0.670440000000    -0.0637403  
C613     C      0.083710000000     0.747170000000     0.473080000000    -0.0644052  
C614     C      0.093900000000     0.733910000000     0.482000000000     0.022761   
C615     C      0.102960000000     0.720840000000     0.471620000000    -0.063762   
C616     C      0.101930000000     0.721170000000     0.452760000000     0.0210321  
C617     C      0.091860000000     0.734590000000     0.443950000000    -0.0976592  
C618     C      0.082770000000     0.747550000000     0.454320000000     0.0220232  
C619     C      0.094800000000     0.733830000000     0.502040000000     0.0228319  
C620     C      0.095650000000     0.750250000000     0.511570000000    -0.0644555  
C621     C      0.094910000000     0.750470000000     0.530350000000     0.0219405  
C622     C      0.093520000000     0.734280000000     0.540110000000    -0.0975475  
C623     C      0.093410000000     0.717790000000     0.530720000000     0.0216746  
C624     C      0.094000000000     0.717560000000     0.511850000000    -0.0638396  
C625     C      0.830710000000     0.805600000000     0.603270000000    -0.0637137  
C626     C      0.812500000000     0.800490000000     0.603820000000     0.0228334  
C627     C      0.808220000000     0.781960000000     0.603710000000    -0.064378   
C628     C      0.821700000000     0.768930000000     0.602320000000     0.022077   
C629     C      0.839810000000     0.774080000000     0.601300000000    -0.0977631  
C630     C      0.844230000000     0.792510000000     0.602120000000     0.0212381  
C631     C      0.797980000000     0.814360000000     0.603620000000     0.0227478  
C632     C      0.799910000000     0.830890000000     0.612840000000    -0.0637507  
C633     C      0.786480000000     0.844110000000     0.611890000000     0.0213803  
C634     C      0.770810000000     0.841010000000     0.601830000000    -0.0970814  
C635     C      0.768730000000     0.824410000000     0.592900000000     0.021575   
C636     C      0.782170000000     0.811310000000     0.593690000000    -0.0641445  
C637     C      0.869190000000     0.663780000000     0.640420000000    -0.0637256  
C638     C      0.865210000000     0.668750000000     0.658300000000     0.0228371  
C639     C      0.861990000000     0.687090000000     0.662150000000    -0.0641885  
C640     C      0.863530000000     0.700200000000     0.648690000000     0.0217906  
C641     C      0.868070000000     0.695260000000     0.631010000000    -0.0971734  
C642     C      0.870500000000     0.676890000000     0.626900000000     0.0217581  
C643     C      0.865500000000     0.655060000000     0.673030000000     0.0227887  
C644     C      0.859420000000     0.637280000000     0.670110000000    -0.0637682  
C645     C      0.860960000000     0.624200000000     0.683650000000     0.021247   
C646     C      0.868470000000     0.628670000000     0.700440000000    -0.0973213  
C647     C      0.874050000000     0.646520000000     0.703550000000     0.0216346  
C648     C      0.872680000000     0.659530000000     0.690000000000    -0.0641306  
C649     C      0.865930000000     0.720310000000     0.508100000000    -0.0641491  
C650     C      0.877080000000     0.732090000000     0.498260000000     0.0230216  
C651     C      0.888890000000     0.743480000000     0.507730000000    -0.0649399  
C652     C      0.889220000000     0.743480000000     0.526510000000     0.0224974  
C653     C      0.877880000000     0.731980000000     0.536350000000    -0.0999991  
C654     C      0.866350000000     0.720230000000     0.526990000000     0.0217022  
C655     C      0.876320000000     0.732920000000     0.478230000000     0.0225483  
C656     C      0.874620000000     0.717130000000     0.467770000000    -0.0636523  
C657     C      0.874750000000     0.718100000000     0.448910000000     0.0211022  
C658     C      0.876660000000     0.734850000000     0.440190000000    -0.0977301  
C659     C      0.877990000000     0.750620000000     0.450630000000     0.0217349  
C660     C      0.877740000000     0.749670000000     0.469390000000    -0.064247   
C661     C      0.963390000000     0.722690000000     0.600720000000    -0.0646182  
C662     C      0.972420000000     0.739390000000     0.600890000000     0.0235364  
C663     C      0.962220000000     0.755390000000     0.601670000000    -0.0640437  
C664     C      0.943420000000     0.754670000000     0.601610000000     0.0212032  
C665     C      0.934510000000     0.737960000000     0.600670000000    -0.0967698  
C666     C      0.944680000000     0.721990000000     0.600520000000     0.0216508  
C667     C      0.992350000000     0.739940000000     0.599560000000     0.0200161  
C668     C      0.002520000000     0.752430000000     0.609580000000    -0.0611519  
C669     C      0.021300000000     0.752450000000     0.608490000000     0.0200229  
C670     C      0.030230000000     0.739960000000     0.597400000000    -0.0967322  
C671     C      0.020070000000     0.727710000000     0.587170000000     0.0202188  
C672     C      0.001370000000     0.727740000000     0.588180000000    -0.061529   
C673     C      0.137870000000     0.362670000000     0.814130000000    -0.0641217  
C674     C      0.155460000000     0.368450000000     0.810200000000     0.023101   
C675     C      0.159290000000     0.374620000000     0.792660000000    -0.0645109  
C676     C      0.145830000000     0.375390000000     0.779580000000     0.0224885  
C677     C      0.128170000000     0.370260000000     0.783760000000    -0.0989945  
C678     C      0.124350000000     0.363680000000     0.801090000000     0.0223245  
C679     C      0.169540000000     0.368990000000     0.824480000000     0.0226344  
C680     C      0.165080000000     0.373770000000     0.842300000000    -0.0635966  
C681     C      0.178420000000     0.375640000000     0.855400000000     0.0218892  
C682     C      0.196560000000     0.373010000000     0.850950000000    -0.0970218  
C683     C      0.201050000000     0.367820000000     0.833320000000     0.0213352  
C684     C      0.187680000000     0.365690000000     0.820270000000    -0.0638943  
C685     C      0.215510000000     0.379990000000     0.012820000000    -0.0640419  
C686     C      0.231500000000     0.382090000000     0.002910000000     0.0227984  
C687     C      0.247810000000     0.383760000000     0.012320000000    -0.0646698  
C688     C      0.248110000000     0.383860000000     0.031100000000     0.0222528  
C689     C      0.232140000000     0.382120000000     0.040990000000    -0.0988637  
C690     C      0.215840000000     0.379970000000     0.031700000000     0.0216378  
C691     C      0.231320000000     0.382930000000     0.982880000000     0.0229841  
C692     C      0.220130000000     0.371530000000     0.972660000000    -0.0643067  
C693     C      0.220580000000     0.372060000000     0.953790000000     0.0219899  
C694     C      0.232270000000     0.383950000000     0.944820000000    -0.100101   
C695     C      0.243210000000     0.395520000000     0.955030000000     0.0224281  
C696     C      0.242690000000     0.395080000000     0.973810000000    -0.0649563  
C697     C      0.247760000000     0.510070000000     0.112670000000    -0.0637825  
C698     C      0.235710000000     0.499540000000     0.102500000000     0.0228409  
C699     C      0.223280000000     0.508350000000     0.091260000000    -0.0645104  
C700     C      0.222680000000     0.527150000000     0.090410000000     0.022101   
C701     C      0.234610000000     0.537680000000     0.100630000000    -0.0978108  
C702     C      0.247230000000     0.528990000000     0.111720000000     0.0211123  
C703     C      0.235940000000     0.479440000000     0.103410000000     0.0228233  
C704     C      0.252220000000     0.469780000000     0.104120000000    -0.063781   
C705     C      0.252240000000     0.450840000000     0.103710000000     0.0214094  
C706     C      0.236010000000     0.441260000000     0.102460000000    -0.0978901  
C707     C      0.219770000000     0.450880000000     0.102260000000     0.0222135  
C708     C      0.219730000000     0.469710000000     0.102840000000    -0.0645309  
C709     C      0.183330000000     0.593610000000     0.818300000000    -0.0644729  
C710     C      0.167010000000     0.602470000000     0.821920000000     0.0228079  
C711     C      0.164610000000     0.610610000000     0.838910000000    -0.0639255  
C712     C      0.178140000000     0.609710000000     0.851990000000     0.0214529  
C713     C      0.194350000000     0.600730000000     0.848310000000    -0.0990755  
C714     C      0.196840000000     0.592830000000     0.831290000000     0.021759   
C715     C      0.152470000000     0.602620000000     0.808130000000     0.0227683  
C716     C      0.156700000000     0.604060000000     0.789700000000    -0.0643389  
C717     C      0.143330000000     0.602490000000     0.776610000000     0.0220214  
C718     C      0.125370000000     0.599690000000     0.781610000000    -0.0979076  
C719     C      0.120950000000     0.599020000000     0.800000000000     0.0214854  
C720     C      0.134370000000     0.600390000000     0.813130000000    -0.0637703  
C721     C      0.255600000000     0.469220000000     0.880730000000    -0.0636853  
C722     C      0.239480000000     0.479160000000     0.880630000000     0.0227441  
C723     C      0.223110000000     0.469750000000     0.879640000000    -0.064329   
C724     C      0.222790000000     0.450900000000     0.879640000000     0.0216876  
C725     C      0.238830000000     0.440970000000     0.880430000000    -0.0970731  
C726     C      0.255270000000     0.450280000000     0.880590000000     0.0211876  
C727     C      0.239520000000     0.499200000000     0.882310000000     0.0226583  
C728     C      0.226590000000     0.507830000000     0.893130000000    -0.0642831  
C729     C      0.226100000000     0.526620000000     0.894460000000     0.0215081  
C730     C      0.238610000000     0.537290000000     0.885140000000    -0.097603   
C731     C      0.251810000000     0.528760000000     0.874620000000     0.0211434  
C732     C      0.252260000000     0.509880000000     0.873200000000    -0.0637717  
C733     C      0.246910000000     0.601810000000     0.972040000000    -0.0642976  
C734     C      0.230500000000     0.601290000000     0.981420000000     0.0226802  
C735     C      0.214420000000     0.600700000000     0.971460000000    -0.063678   
C736     C      0.214810000000     0.600080000000     0.952590000000     0.0214328  
C737     C      0.231280000000     0.599920000000     0.943350000000    -0.0972729  
C738     C      0.247290000000     0.601030000000     0.953270000000     0.0218584  
C739     C      0.230360000000     0.600550000000     0.001470000000     0.0228904  
C740     C      0.243300000000     0.590210000000     0.010630000000    -0.0644926  
C741     C      0.243440000000     0.589410000000     0.029390000000     0.0221691  
C742     C      0.230560000000     0.598810000000     0.039540000000    -0.0979517  
C743     C      0.217480000000     0.609060000000     0.030490000000     0.0211684  
C744     C      0.217390000000     0.609940000000     0.011620000000    -0.0637592  
C745     C      0.132860000000     0.610790000000     0.171290000000    -0.0637574  
C746     C      0.150420000000     0.604510000000     0.174480000000     0.0227395  
C747     C      0.154450000000     0.597020000000     0.191440000000    -0.0640168  
C748     C      0.141290000000     0.595670000000     0.204760000000     0.0216413  
C749     C      0.123690000000     0.601570000000     0.201410000000    -0.0977552  
C750     C      0.119610000000     0.609260000000     0.184600000000     0.0214427  
C751     C      0.164370000000     0.605080000000     0.160080000000     0.0228856  
C752     C      0.159870000000     0.601620000000     0.141960000000    -0.0639123  
C753     C      0.173220000000     0.600750000000     0.128720000000     0.0216106  
C754     C      0.191350000000     0.603090000000     0.133340000000    -0.0981702  
C755     C      0.195830000000     0.607060000000     0.151280000000     0.0221844  
C756     C      0.182500000000     0.608190000000     0.164470000000    -0.0643874  
C757     C      0.086320000000     0.660480000000     0.291150000000    -0.0643389  
C758     C      0.095430000000     0.656580000000     0.307300000000     0.0228128  
C759     C      0.103060000000     0.639300000000     0.309490000000    -0.0639979  
C760     C      0.101470000000     0.626240000000     0.295910000000     0.0214902  
C761     C      0.092280000000     0.630220000000     0.279850000000    -0.099231   
C762     C      0.084830000000     0.647510000000     0.277590000000     0.02176    
C763     C      0.096460000000     0.670400000000     0.321870000000     0.0226756  
C764     C      0.098470000000     0.688820000000     0.317570000000    -0.0642464  
C765     C      0.097820000000     0.702000000000     0.331020000000     0.0218804  
C766     C      0.095370000000     0.697100000000     0.349130000000    -0.0979911  
C767     C      0.094100000000     0.678690000000     0.353600000000     0.0212271  
C768     C      0.094570000000     0.665480000000     0.340100000000    -0.0636754  
C769     C      0.865120000000     0.642360000000     0.307800000000    -0.0636728  
C770     C      0.863030000000     0.660640000000     0.302970000000     0.0227783  
C771     C      0.861220000000     0.665050000000     0.284600000000    -0.0640907  
C772     C      0.862370000000     0.651660000000     0.271380000000     0.0213129  
C773     C      0.865110000000     0.633520000000     0.276220000000    -0.0968919  
C774     C      0.866050000000     0.628940000000     0.294560000000     0.0215727  
C775     C      0.863930000000     0.675120000000     0.316900000000     0.0227747  
C776     C      0.856660000000     0.672500000000     0.334230000000    -0.0638131  
C777     C      0.858750000000     0.685680000000     0.347610000000     0.0214129  
C778     C      0.868010000000     0.701790000000     0.343900000000    -0.0974545  
C779     C      0.874840000000     0.704640000000     0.326490000000     0.0214991  
C780     C      0.872900000000     0.691440000000     0.313190000000    -0.0639719  
C781     C      0.960670000000     0.599090000000     0.217220000000    -0.0643491  
C782     C      0.970540000000     0.599560000000     0.233400000000     0.023322   
C783     C      0.961210000000     0.601280000000     0.249780000000    -0.0651526  
C784     C      0.942500000000     0.601690000000     0.250080000000     0.0225656  
C785     C      0.932620000000     0.600570000000     0.234010000000    -0.0994616  
C786     C      0.941850000000     0.599630000000     0.217530000000     0.0217276  
C787     C      0.990420000000     0.597570000000     0.233450000000     0.0215217  
C788     C      0.998790000000     0.587000000000     0.246780000000    -0.0647359  
C789     C      0.017440000000     0.585490000000     0.247450000000     0.0219859  
C790     C      0.028220000000     0.594410000000     0.234740000000    -0.0972974  
C791     C      0.019940000000     0.604670000000     0.221130000000     0.02044    
C792     C      0.001200000000     0.606240000000     0.220490000000    -0.061876   
C793     C      0.861120000000     0.308620000000     0.340630000000    -0.0636875  
C794     C      0.867580000000     0.306020000000     0.322980000000     0.0225348  
C795     C      0.875530000000     0.289350000000     0.318560000000    -0.0640396  
C796     C      0.877030000000     0.275660000000     0.331400000000     0.0212277  
C797     C      0.870770000000     0.278330000000     0.349050000000    -0.0970208  
C798     C      0.862730000000     0.294910000000     0.353550000000     0.0209113  
C799     C      0.866680000000     0.320710000000     0.309300000000     0.022991   
C800     C      0.863380000000     0.316610000000     0.291080000000    -0.0646033  
C801     C      0.864390000000     0.330030000000     0.277900000000     0.0222212  
C802     C      0.868510000000     0.347930000000     0.282640000000    -0.099554   
C803     C      0.870950000000     0.352280000000     0.300900000000     0.0219765  
C804     C      0.870120000000     0.338790000000     0.314100000000    -0.0641994  
C805     C      0.888530000000     0.470970000000     0.233170000000    -0.0645744  
C806     C      0.876100000000     0.480350000000     0.243940000000     0.0229383  
C807     C      0.864600000000     0.470390000000     0.255270000000    -0.0639101  
C808     C      0.865350000000     0.451470000000     0.255550000000     0.0216354  
C809     C      0.877510000000     0.442190000000     0.244430000000    -0.0975887  
C810     C      0.889150000000     0.452140000000     0.233330000000     0.0222535  
C811     C      0.875100000000     0.500420000000     0.243040000000     0.0228392  
C812     C      0.872250000000     0.510860000000     0.258650000000    -0.0638771  
C813     C      0.872040000000     0.529760000000     0.257690000000     0.0214966  
C814     C      0.874790000000     0.538560000000     0.241140000000    -0.0980989  
C815     C      0.877330000000     0.528150000000     0.225530000000     0.0221643  
C816     C      0.877370000000     0.509330000000     0.226450000000    -0.0645171  
C817     C      0.091810000000     0.312480000000     0.290400000000    -0.063843   
C818     C      0.099820000000     0.316810000000     0.307020000000     0.0227454  
C819     C      0.106430000000     0.334450000000     0.309620000000    -0.0635926  
C820     C      0.104680000000     0.347510000000     0.296080000000     0.0212752  
C821     C      0.096440000000     0.343160000000     0.279620000000    -0.0961613  
C822     C      0.090230000000     0.325460000000     0.276840000000     0.0213218  
C823     C      0.100470000000     0.303140000000     0.321750000000     0.0227481  
C824     C      0.097390000000     0.308210000000     0.339780000000    -0.0636355  
C825     C      0.096290000000     0.295140000000     0.353350000000     0.0216333  
C826     C      0.098030000000     0.276720000000     0.349150000000    -0.0972917  
C827     C      0.101750000000     0.271650000000     0.331310000000     0.0214874  
C828     C      0.103090000000     0.284720000000     0.317790000000    -0.0639648  
C829     C      0.157110000000     0.368230000000     0.193960000000    -0.0645247  
C830     C      0.153210000000     0.370000000000     0.175480000000     0.0229649  
C831     C      0.135170000000     0.372080000000     0.170170000000    -0.0639702  
C832     C      0.121490000000     0.373020000000     0.183070000000     0.0217901  
C833     C      0.125590000000     0.372120000000     0.201510000000    -0.0990691  
C834     C      0.143480000000     0.369430000000     0.206820000000     0.0223663  
C835     C      0.168000000000     0.370780000000     0.161990000000     0.0226517  
C836     C      0.184140000000     0.379730000000     0.166180000000    -0.0640698  
C837     C      0.197780000000     0.381310000000     0.153390000000     0.0215854  
C838     C      0.195570000000     0.374170000000     0.136010000000    -0.0972503  
C839     C      0.179590000000     0.365010000000     0.131780000000     0.0211946  
C840     C      0.165970000000     0.363270000000     0.144670000000    -0.0635747  
C841     C      0.964410000000     0.386480000000     0.252550000000    -0.0648967  
C842     C      0.972980000000     0.375800000000     0.239430000000     0.0237133  
C843     C      0.962340000000     0.366700000000     0.226630000000    -0.0641638  
C844     C      0.943580000000     0.368210000000     0.227040000000     0.0211654  
C845     C      0.935140000000     0.378780000000     0.240300000000    -0.0977393  
C846     C      0.945760000000     0.387860000000     0.253040000000     0.0224044  
C847     C      0.992930000000     0.374530000000     0.239170000000     0.0201003  
C848     C      0.002510000000     0.374520000000     0.222810000000    -0.0608573  
C849     C      0.021320000000     0.374840000000     0.222790000000     0.0201295  
C850     C      0.030850000000     0.375370000000     0.239120000000    -0.0958505  
C851     C      0.021320000000     0.374770000000     0.255420000000     0.0209579  
C852     C      0.002610000000     0.374210000000     0.255450000000    -0.061655   
C853     C      0.098910000000     0.466770000000     0.256760000000    -0.0638603  
C854     C      0.089620000000     0.476860000000     0.243640000000     0.0228461  
C855     C      0.079620000000     0.467560000000     0.230510000000    -0.0645676  
C856     C      0.079190000000     0.448720000000     0.230250000000     0.0220346  
C857     C      0.088580000000     0.438650000000     0.243220000000    -0.0990711  
C858     C      0.098370000000     0.447830000000     0.256570000000     0.0211854  
C859     C      0.090250000000     0.496980000000     0.243450000000     0.0227165  
C860     C      0.089610000000     0.507010000000     0.259560000000    -0.0636648  
C861     C      0.089180000000     0.525940000000     0.259120000000     0.0214678  
C862     C      0.089270000000     0.535170000000     0.242570000000    -0.0973463  
C863     C      0.090340000000     0.525180000000     0.226520000000     0.0217327  
C864     C      0.090930000000     0.506340000000     0.226960000000    -0.0642018  
C865     C      0.586800000000     0.165640000000     0.788040000000    -0.06403    
C866     C      0.597180000000     0.162740000000     0.803630000000     0.0227121  
C867     C      0.606510000000     0.146280000000     0.805390000000    -0.0637949  
C868     C      0.605240000000     0.132970000000     0.792040000000     0.0214233  
C869     C      0.594730000000     0.135890000000     0.776600000000    -0.0973551  
C870     C      0.585670000000     0.152420000000     0.774660000000     0.02127    
C871     C      0.597710000000     0.176660000000     0.818150000000     0.0227097  
C872     C      0.597480000000     0.195180000000     0.813840000000    -0.0640797  
C873     C      0.596430000000     0.208240000000     0.827390000000     0.0215046  
C874     C      0.595830000000     0.203110000000     0.845600000000    -0.0973694  
C875     C      0.596760000000     0.184670000000     0.850020000000     0.0211485  
C876     C      0.597600000000     0.171570000000     0.836440000000    -0.0636777  
C877     C      0.592670000000     0.254560000000     0.970130000000    -0.0643839  
C878     C      0.592450000000     0.237990000000     0.979420000000     0.0227927  
C879     C      0.592920000000     0.221840000000     0.969390000000    -0.0637049  
C880     C      0.592990000000     0.222300000000     0.950510000000     0.0214298  
C881     C      0.592460000000     0.238920000000     0.941350000000    -0.0978225  
C882     C      0.592550000000     0.255020000000     0.951350000000     0.0221172  
C883     C      0.591050000000     0.237760000000     0.999430000000     0.022701   
C884     C      0.600550000000     0.225050000000     0.009860000000    -0.0637133  
C885     C      0.599350000000     0.225300000000     0.028710000000     0.0212371  
C886     C      0.588700000000     0.238310000000     0.037440000000    -0.0978583  
C887     C      0.579050000000     0.250800000000     0.027020000000     0.0220629  
C888     C      0.580130000000     0.250470000000     0.008280000000    -0.06438    
C889     C      0.312130000000     0.288030000000     0.114110000000    -0.0643476  
C890     C      0.315620000000     0.305860000000     0.108540000000     0.0228452  
C891     C      0.332780000000     0.310110000000     0.101820000000    -0.0640253  
C892     C      0.345910000000     0.296700000000     0.100130000000     0.0221042  
C893     C      0.342120000000     0.278770000000     0.105050000000    -0.0976473  
C894     C      0.325210000000     0.274630000000     0.112340000000     0.0215663  
C895     C      0.301090000000     0.319650000000     0.108690000000     0.0227333  
C896     C      0.283610000000     0.314900000000     0.103310000000    -0.0642522  
C897     C      0.270100000000     0.327930000000     0.102350000000     0.0215334  
C898     C      0.273730000000     0.346040000000     0.106690000000    -0.0977988  
C899     C      0.291070000000     0.350790000000     0.112450000000     0.0212754  
C900     C      0.304630000000     0.337720000000     0.113430000000    -0.0639751  
C901     C      0.461450000000     0.256680000000     0.107590000000    -0.0641296  
C902     C      0.471780000000     0.247210000000     0.094820000000     0.0228384  
C903     C      0.462950000000     0.237800000000     0.080960000000    -0.0648189  
C904     C      0.444260000000     0.237210000000     0.080290000000     0.0215902  
C905     C      0.433920000000     0.246090000000     0.093390000000    -0.0982292  
C906     C      0.442650000000     0.256120000000     0.106880000000     0.0213112  
C907     C      0.491680000000     0.246460000000     0.096150000000     0.0226369  
C908     C      0.501830000000     0.261950000000     0.100270000000    -0.0638985  
C909     C      0.520630000000     0.261120000000     0.100660000000     0.0211145  
C910     C      0.529550000000     0.244790000000     0.096970000000    -0.0967423  
C911     C      0.519370000000     0.229250000000     0.093320000000     0.0215417  
C912     C      0.500680000000     0.230070000000     0.092950000000    -0.0643013  
C913     C      0.284800000000     0.314520000000     0.882580000000    -0.0646198  
C914     C      0.303010000000     0.319250000000     0.880900000000     0.0227667  
C915     C      0.307540000000     0.337590000000     0.878710000000    -0.0639684  
C916     C      0.294170000000     0.350920000000     0.878890000000     0.020925   
C917     C      0.276070000000     0.346140000000     0.881350000000    -0.0981432  
C918     C      0.271510000000     0.327800000000     0.882900000000     0.0219533  
C919     C      0.317130000000     0.305080000000     0.882280000000     0.0225473  
C920     C      0.315220000000     0.290960000000     0.894830000000    -0.0644394  
C921     C      0.328110000000     0.277370000000     0.896110000000     0.0212504  
C922     C      0.343360000000     0.277580000000     0.884990000000    -0.098503   
C923     C      0.345540000000     0.291800000000     0.872620000000     0.0209324  
C924     C      0.332520000000     0.305440000000     0.871270000000    -0.0638826  
C925     C      0.375490000000     0.161210000000     0.791580000000    -0.0641326  
C926     C      0.367050000000     0.156720000000     0.807940000000     0.022368   
C927     C      0.360160000000     0.139140000000     0.810130000000    -0.0638288  
C928     C      0.361930000000     0.126300000000     0.796390000000     0.0210864  
C929     C      0.370620000000     0.130780000000     0.780190000000    -0.0980665  
C930     C      0.377230000000     0.148410000000     0.777880000000     0.0211474  
C931     C      0.366220000000     0.170140000000     0.822840000000     0.0232845  
C932     C      0.369710000000     0.164860000000     0.840710000000    -0.0647713  
C933     C      0.370640000000     0.177750000000     0.854470000000     0.0231793  
C934     C      0.368130000000     0.196170000000     0.850640000000    -0.100139   
C935     C      0.363940000000     0.201390000000     0.832930000000     0.0222622  
C936     C      0.362960000000     0.188510000000     0.819190000000    -0.0648846  
C937     C      0.357680000000     0.219100000000     0.971040000000    -0.0649115  
C938     C      0.372760000000     0.220720000000     0.982280000000     0.0227606  
C939     C      0.389770000000     0.223210000000     0.974500000000    -0.0645208  
C940     C      0.391590000000     0.224780000000     0.955820000000     0.0217965  
C941     C      0.376470000000     0.223490000000     0.944590000000    -0.0979321  
C942     C      0.359550000000     0.220250000000     0.952320000000     0.0222609  
C943     C      0.370750000000     0.221120000000     0.002100000000     0.0228321  
C944     C      0.359330000000     0.233870000000     0.010180000000    -0.0644584  
C945     C      0.359100000000     0.235930000000     0.028910000000     0.0216986  
C946     C      0.370000000000     0.225010000000     0.039870000000    -0.0972246  
C947     C      0.380710000000     0.211610000000     0.031830000000     0.0223929  
C948     C      0.381240000000     0.209830000000     0.013070000000    -0.0648954  
C949     C      0.462750000000     0.259500000000     0.884820000000    -0.0639611  
C950     C      0.472990000000     0.244410000000     0.879560000000     0.02269    
C951     C      0.464040000000     0.228510000000     0.874390000000    -0.0645399  
C952     C      0.445370000000     0.227410000000     0.875230000000     0.0215701  
C953     C      0.435150000000     0.242200000000     0.881190000000    -0.0971678  
C954     C      0.443980000000     0.258390000000     0.885640000000     0.0215538  
C955     C      0.492930000000     0.244720000000     0.880410000000     0.0228284  
C956     C      0.502860000000     0.259660000000     0.874220000000    -0.0641658  
C957     C      0.521680000000     0.259530000000     0.874990000000     0.0211243  
C958     C      0.530840000000     0.244510000000     0.882080000000    -0.0989871  
C959     C      0.520860000000     0.229710000000     0.888420000000     0.0219857  
C960     C      0.502170000000     0.229810000000     0.887600000000    -0.0648077  
C961     C      0.307300000000     0.872870000000     0.293770000000    -0.0643431  
C962     C      0.311850000000     0.874020000000     0.312140000000     0.0227414  
C963     C      0.330080000000     0.875780000000     0.316870000000    -0.0636978  
C964     C      0.343330000000     0.876930000000     0.303530000000     0.0211754  
C965     C      0.338610000000     0.876500000000     0.285210000000    -0.097685   
C966     C      0.320500000000     0.874220000000     0.280480000000     0.0218876  
C967     C      0.297550000000     0.874260000000     0.326190000000     0.0227816  
C968     C      0.281280000000     0.883370000000     0.322970000000    -0.064251   
C969     C      0.268030000000     0.884240000000     0.336250000000     0.0217329  
C970     C      0.270770000000     0.876180000000     0.353150000000    -0.098296   
C971     C      0.286910000000     0.866920000000     0.356410000000     0.0215034  
C972     C      0.300150000000     0.865910000000     0.343050000000    -0.0639134  
C973     C      0.329700000000     0.112890000000     0.314440000000    -0.0637847  
C974     C      0.312170000000     0.106450000000     0.311480000000     0.0226707  
C975     C      0.307840000000     0.099190000000     0.294510000000    -0.064136   
C976     C      0.320720000000     0.098190000000     0.280910000000     0.0214755  
C977     C      0.338300000000     0.104300000000     0.283960000000    -0.0971872  
C978     C      0.342660000000     0.111810000000     0.300800000000     0.0210626  
C979     C      0.298490000000     0.106610000000     0.326090000000     0.0231844  
C980     C      0.303150000000     0.102060000000     0.343920000000    -0.0640173  
C981     C      0.289890000000     0.100410000000     0.357200000000     0.0217242  
C982     C      0.271740000000     0.103150000000     0.352850000000    -0.0977529  
C983     C      0.267170000000     0.108400000000     0.335250000000     0.0235617  
C984     C      0.280390000000     0.110210000000     0.322060000000    -0.0648061  
C985     C      0.379330000000     0.187580000000     0.164420000000    -0.0647945  
C986     C      0.367210000000     0.173130000000     0.162580000000     0.0231413  
C987     C      0.357120000000     0.171690000000     0.146610000000    -0.0646015  
C988     C      0.359160000000     0.184420000000     0.132800000000     0.022359   
C989     C      0.371320000000     0.198810000000     0.134710000000    -0.100067   
C990     C      0.381340000000     0.200280000000     0.150670000000     0.0220799  
C991     C      0.365610000000     0.159400000000     0.177140000000     0.0225467  
C992     C      0.364470000000     0.140880000000     0.172990000000    -0.0637477  
C993     C      0.364760000000     0.127920000000     0.186720000000     0.0213275  
C994     C      0.366250000000     0.133230000000     0.204840000000    -0.0969294  
C995     C      0.366610000000     0.151740000000     0.209030000000     0.0212452  
C996     C      0.366240000000     0.164680000000     0.195340000000    -0.0642161  
C997     C      0.374000000000     0.010210000000     0.258980000000    -0.0648148  
C998     C      0.371960000000     0.000630000000     0.242720000000     0.0233324  
C999     C      0.370170000000     0.010460000000     0.226570000000    -0.0639502  
C1000    C      0.370790000000     0.029380000000     0.226670000000     0.0218308  
C1001    C      0.373370000000     0.038810000000     0.242900000000    -0.0988588  
C1002    C      0.374820000000     0.029040000000     0.259040000000     0.0225755  
C1003    C      0.372280000000     0.980510000000     0.242730000000     0.0223819  
C1004    C      0.383890000000     0.971200000000     0.254450000000    -0.0643968  
C1005    C      0.384140000000     0.952370000000     0.254860000000     0.0222395  
C1006    C      0.372970000000     0.942310000000     0.243400000000    -0.0977768  
C1007    C      0.361500000000     0.951470000000     0.231470000000     0.0211546  
C1008    C      0.361110000000     0.970410000000     0.231180000000    -0.0635413  
C1009    C      0.599000000000     0.165020000000     0.191870000000    -0.0642526  
C1010    C      0.596270000000     0.160740000000     0.173590000000     0.0228203  
C1011    C      0.592920000000     0.142610000000     0.168880000000    -0.0637267  
C1012    C      0.591800000000     0.129230000000     0.182170000000     0.0215122  
C1013    C      0.593790000000     0.133740000000     0.200440000000    -0.0979011  
C1014    C      0.597630000000     0.151710000000     0.205140000000     0.0220252  
C1015    C      0.596010000000     0.175280000000     0.159690000000     0.0227567  
C1016    C      0.588470000000     0.192260000000     0.163690000000    -0.0641369  
C1017    C      0.587500000000     0.205740000000     0.150580000000     0.021672   
C1018    C      0.593860000000     0.202560000000     0.133060000000    -0.0980098  
C1019    C      0.601570000000     0.185710000000     0.129000000000     0.0213893  
C1020    C      0.602700000000     0.172230000000     0.142200000000    -0.0638114  
C1021    C      0.632340000000     0.104940000000     0.311550000000    -0.0637385  
C1022    C      0.650400000000     0.107280000000     0.306450000000     0.0228319  
C1023    C      0.654470000000     0.109190000000     0.288030000000    -0.0642692  
C1024    C      0.641000000000     0.107930000000     0.275010000000     0.0220543  
C1025    C      0.623080000000     0.105020000000     0.280100000000    -0.0978448  
C1026    C      0.618800000000     0.103920000000     0.298500000000     0.0214288  
C1027    C      0.665040000000     0.106680000000     0.320110000000     0.0228032  
C1028    C      0.662740000000     0.114190000000     0.337400000000    -0.0638281  
C1029    C      0.676280000000     0.112660000000     0.350410000000     0.0213723  
C1030    C      0.692410000000     0.103700000000     0.346350000000    -0.097591   
C1031    C      0.694860000000     0.096550000000     0.329000000000     0.0217436  
C1032    C      0.681320000000     0.097930000000     0.316090000000    -0.0641364  
C1033    C      0.501230000000     0.112320000000     0.257890000000    -0.0637365  
C1034    C      0.490690000000     0.102910000000     0.245240000000     0.0227676  
C1035    C      0.499360000000     0.092560000000     0.231940000000    -0.0645091  
C1036    C      0.518030000000     0.091790000000     0.231130000000     0.0221409  
C1037    C      0.528570000000     0.101190000000     0.243710000000    -0.0977158  
C1038    C      0.520020000000     0.111440000000     0.257150000000     0.0210647  
C1039    C      0.470730000000     0.103630000000     0.245760000000     0.0230377  
C1040    C      0.461330000000     0.103030000000     0.262210000000    -0.0640298  
C1041    C      0.442530000000     0.102260000000     0.262410000000     0.0217684  
C1042    C      0.432850000000     0.101930000000     0.246160000000    -0.0993395  
C1043    C      0.442210000000     0.103110000000     0.229790000000     0.0226964  
C1044    C      0.460890000000     0.104070000000     0.229590000000    -0.06488    
C1045    C      0.654490000000     0.882260000000     0.290370000000    -0.0640663  
C1046    C      0.650920000000     0.873530000000     0.306820000000     0.0227061  
C1047    C      0.633740000000     0.866100000000     0.309630000000    -0.0636558  
C1048    C      0.620400000000     0.867660000000     0.296410000000     0.0212104  
C1049    C      0.624020000000     0.876580000000     0.280100000000    -0.0975141  
C1050    C      0.641250000000     0.883690000000     0.277150000000     0.021546   
C1051    C      0.664930000000     0.872870000000     0.321130000000     0.0229164  
C1052    C      0.683150000000     0.870810000000     0.316520000000    -0.0644742  
C1053    C      0.696490000000     0.871980000000     0.329680000000     0.0221831  
C1054    C      0.691950000000     0.874980000000     0.347790000000    -0.0980572  
C1055    C      0.673760000000     0.876230000000     0.352600000000     0.021593   
C1056    C      0.660380000000     0.875280000000     0.339390000000    -0.0638588  
C1057    C      0.500450000000     0.879650000000     0.262450000000    -0.0637659  
C1058    C      0.490440000000     0.879290000000     0.246360000000     0.0228746  
C1059    C      0.499690000000     0.879180000000     0.229830000000    -0.0646226  
C1060    C      0.518380000000     0.880120000000     0.229350000000     0.0223354  
C1061    C      0.528350000000     0.880970000000     0.245380000000    -0.0985209  
C1062    C      0.519250000000     0.880410000000     0.261960000000     0.021467   
C1063    C      0.470460000000     0.879840000000     0.246590000000     0.0226973  
C1064    C      0.460460000000     0.870140000000     0.259480000000    -0.0636512  
C1065    C      0.441640000000     0.870780000000     0.259380000000     0.0209072  
C1066    C      0.432510000000     0.881070000000     0.246370000000    -0.0974794  
C1067    C      0.442510000000     0.890790000000     0.233580000000     0.0219188  
C1068    C      0.461210000000     0.890250000000     0.233750000000    -0.064324   
C1069    C      0.588550000000     0.971540000000     0.255020000000    -0.0644397  
C1070    C      0.589060000000     0.980950000000     0.238550000000     0.0224049  
C1071    C      0.589440000000     0.970960000000     0.222400000000    -0.0635971  
C1072    C      0.588890000000     0.952030000000     0.222750000000     0.0213276  
C1073    C      0.587840000000     0.942760000000     0.239240000000    -0.0983104  
C1074    C      0.587830000000     0.952710000000     0.255350000000     0.0220462  
C1075    C      0.588620000000     0.001070000000     0.238400000000     0.0232298  
C1076    C      0.577880000000     0.010400000000     0.250900000000    -0.0646188  
C1077    C      0.577550000000     0.029230000000     0.251200000000     0.0222898  
C1078    C      0.587800000000     0.039280000000     0.238870000000    -0.0982174  
C1079    C      0.598380000000     0.030070000000     0.226170000000     0.0214323  
C1080    C      0.598820000000     0.011130000000     0.225950000000    -0.0639102  
C1081    C      0.800590000000     0.601730000000     0.139060000000    -0.0640828  
C1082    C      0.796010000000     0.604130000000     0.157310000000     0.0229584  
C1083    C      0.777780000000     0.605860000000     0.161940000000    -0.0647634  
C1084    C      0.764440000000     0.604530000000     0.148800000000     0.022223   
C1085    C      0.769000000000     0.601610000000     0.130670000000    -0.100102   
C1086    C      0.787210000000     0.600540000000     0.125860000000     0.0214916  
C1087    C      0.810050000000     0.603900000000     0.171600000000     0.0225329  
C1088    C      0.806780000000     0.595030000000     0.188040000000    -0.0641331  
C1089    C      0.820010000000     0.594220000000     0.201330000000     0.0214007  
C1090    C      0.836900000000     0.602130000000     0.198480000000    -0.0971756  
C1091    C      0.840220000000     0.611150000000     0.182160000000     0.0211126  
C1092    C      0.826920000000     0.612050000000     0.168850000000    -0.0636564  
C1093    C      0.804210000000     0.599620000000     0.837970000000    -0.0636074  
C1094    C      0.799560000000     0.600660000000     0.819610000000     0.0226631  
C1095    C      0.781290000000     0.601780000000     0.814930000000    -0.0642614  
C1096    C      0.768000000000     0.601090000000     0.828180000000     0.0217063  
C1097    C      0.772650000000     0.599470000000     0.846440000000    -0.097171   
C1098    C      0.790880000000     0.599100000000     0.851260000000     0.0211786  
C1099    C      0.813570000000     0.599670000000     0.805320000000     0.0228782  
C1100    C      0.830330000000     0.608200000000     0.807490000000    -0.0640889  
C1101    C      0.843580000000     0.606710000000     0.794170000000     0.0215913  
C1102    C      0.840300000000     0.596720000000     0.778410000000    -0.099194   
C1103    C      0.823530000000     0.588350000000     0.776160000000     0.0217894  
C1104    C      0.810370000000     0.589740000000     0.789470000000    -0.0644586  
C1105    C      0.745800000000     0.608400000000     0.968710000000    -0.0638586  
C1106    C      0.733080000000     0.598670000000     0.978860000000     0.0228939  
C1107    C      0.720750000000     0.587570000000     0.969730000000    -0.0645294  
C1108    C      0.720930000000     0.586400000000     0.950980000000     0.0220854  
C1109    C      0.733550000000     0.596160000000     0.940840000000    -0.0982549  
C1110    C      0.746050000000     0.607130000000     0.949860000000     0.0212075  
C1111    C      0.732580000000     0.599810000000     0.998890000000     0.0225366  
C1112    C      0.748520000000     0.600230000000     0.009080000000    -0.0634383  
C1113    C      0.747870000000     0.599930000000     0.027950000000     0.0211759  
C1114    C      0.731300000000     0.599080000000     0.036950000000    -0.0960197  
C1115    C      0.715400000000     0.599230000000     0.026800000000     0.0215875  
C1116    C      0.716030000000     0.599710000000     0.008020000000    -0.0640633  
C1117    C      0.660780000000     0.340720000000     0.100280000000    -0.0642915  
C1118    C      0.664990000000     0.322820000000     0.105110000000     0.0231796  
C1119    C      0.682860000000     0.318570000000     0.109570000000    -0.0649112  
C1120    C      0.696280000000     0.331700000000     0.108560000000     0.0233358  
C1121    C      0.692150000000     0.349420000000     0.103210000000    -0.099285   
C1122    C      0.674230000000     0.353910000000     0.099380000000     0.0218193  
C1123    C      0.651060000000     0.308410000000     0.104620000000     0.0226005  
C1124    C      0.633360000000     0.311790000000     0.110360000000    -0.0639521  
C1125    C      0.620210000000     0.298320000000     0.109120000000     0.0212704  
C1126    C      0.624520000000     0.281210000000     0.102140000000    -0.0988087  
C1127    C      0.642230000000     0.277740000000     0.096670000000     0.0215721  
C1128    C      0.655320000000     0.291180000000     0.097840000000    -0.0642964  
C1129    C      0.783430000000     0.372910000000     0.164010000000    -0.0650116  
C1130    C      0.801360000000     0.377260000000     0.159960000000     0.02332    
C1131    C      0.805800000000     0.382030000000     0.142150000000    -0.0643855  
C1132    C      0.792510000000     0.382930000000     0.128840000000     0.0219148  
C1133    C      0.774520000000     0.379180000000     0.133110000000    -0.0995637  
C1134    C      0.770160000000     0.373940000000     0.150760000000     0.0234381  
C1135    C      0.815140000000     0.377630000000     0.174490000000     0.0224354  
C1136    C      0.810740000000     0.384400000000     0.191640000000    -0.0640891  
C1137    C      0.823630000000     0.385230000000     0.205250000000     0.0212477  
C1138    C      0.841290000000     0.379420000000     0.202050000000    -0.0972227  
C1139    C      0.845760000000     0.372550000000     0.184980000000     0.0208145  
C1140    C      0.832810000000     0.371640000000     0.171330000000    -0.0637104  
C1141    C      0.711170000000     0.468740000000     0.083710000000    -0.0654073  
C1142    C      0.715490000000     0.478860000000     0.099130000000     0.0229751  
C1143    C      0.720090000000     0.469730000000     0.115080000000    -0.064637   
C1144    C      0.721390000000     0.450860000000     0.115280000000     0.0221446  
C1145    C      0.717920000000     0.440810000000     0.099590000000    -0.100324   
C1146    C      0.712280000000     0.449900000000     0.083960000000     0.0231411  
C1147    C      0.716750000000     0.498830000000     0.098060000000     0.0228969  
C1148    C      0.726450000000     0.506850000000     0.083940000000    -0.0650927  
C1149    C      0.728540000000     0.525570000000     0.083150000000     0.022747   
C1150    C      0.720780000000     0.536710000000     0.096340000000    -0.100432   
C1151    C      0.710830000000     0.528760000000     0.110360000000     0.0218875  
C1152    C      0.708980000000     0.509940000000     0.111310000000    -0.0647195  
C1153    C      0.809880000000     0.371830000000     0.843240000000    -0.0643514  
C1154    C      0.805080000000     0.370240000000     0.824970000000     0.0227769  
C1155    C      0.786830000000     0.368350000000     0.820480000000    -0.0646235  
C1156    C      0.773640000000     0.368850000000     0.833840000000     0.0218594  
C1157    C      0.778390000000     0.371220000000     0.852010000000    -0.0988021  
C1158    C      0.796660000000     0.372320000000     0.856620000000     0.0224284  
C1159    C      0.818900000000     0.371630000000     0.810580000000     0.0229234  
C1160    C      0.815500000000     0.382040000000     0.795110000000    -0.0647553  
C1161    C      0.828540000000     0.383910000000     0.781730000000     0.0220182  
C1162    C      0.845300000000     0.375400000000     0.783500000000    -0.100634   
C1163    C      0.848750000000     0.364910000000     0.798910000000     0.0220168  
C1164    C      0.835680000000     0.363080000000     0.812350000000    -0.0646435  
C1165    C      0.668670000000     0.336430000000     0.870000000000    -0.06409    
C1166    C      0.669500000000     0.319690000000     0.878970000000     0.0228024  
C1167    C      0.684440000000     0.315990000000     0.889960000000    -0.0644137  
C1168    C      0.698220000000     0.328620000000     0.891890000000     0.0213502  
C1169    C      0.697370000000     0.345340000000     0.882970000000    -0.0990756  
C1170    C      0.682470000000     0.349140000000     0.871990000000     0.0214399  
C1171    C      0.654770000000     0.306190000000     0.877270000000     0.0225399  
C1172    C      0.636660000000     0.311640000000     0.877240000000    -0.0636454  
C1173    C      0.622870000000     0.298790000000     0.877120000000     0.0210903  
C1174    C      0.626910000000     0.280240000000     0.877130000000    -0.0966091  
C1175    C      0.644960000000     0.274800000000     0.876510000000     0.0213397  
C1176    C      0.658720000000     0.287610000000     0.876510000000    -0.0641592  
C1177    C      0.757990000000     0.367240000000     0.973140000000    -0.0643868  
C1178    C      0.751230000000     0.381450000000     0.983720000000     0.0225288  
C1179    C      0.742760000000     0.396100000000     0.975160000000    -0.0643949  
C1180    C      0.740790000000     0.396390000000     0.956460000000     0.0213461  
C1181    C      0.747420000000     0.382140000000     0.945870000000    -0.0983112  
C1182    C      0.756230000000     0.367650000000     0.954350000000     0.021527   
C1183    C      0.752130000000     0.380800000000     0.003690000000     0.023048   
C1184    C      0.746750000000     0.365200000000     0.013060000000    -0.0646108  
C1185    C      0.745310000000     0.365400000000     0.031860000000     0.0219189  
C1186    C      0.749380000000     0.381150000000     0.041630000000    -0.0997689  
C1187    C      0.755740000000     0.396410000000     0.032330000000     0.0227844  
C1188    C      0.757020000000     0.396260000000     0.013550000000    -0.0652368  
C1189    C      0.716480000000     0.466160000000     0.882150000000    -0.0637571  
C1190    C      0.731990000000     0.476280000000     0.878210000000     0.022631   
C1191    C      0.748130000000     0.467060000000     0.874760000000    -0.0642917  
C1192    C      0.748980000000     0.448270000000     0.876000000000     0.0213033  
C1193    C      0.733670000000     0.438210000000     0.880600000000    -0.0968783  
C1194    C      0.717310000000     0.447280000000     0.883320000000     0.0213189  
C1195    C      0.731720000000     0.496370000000     0.878690000000     0.0227296  
C1196    C      0.717290000000     0.506270000000     0.871430000000    -0.0638133  
C1197    C      0.717240000000     0.525210000000     0.872170000000     0.0209193  
C1198    C      0.731580000000     0.534540000000     0.880230000000    -0.0974633  
C1199    C      0.745940000000     0.524630000000     0.887490000000     0.0217297  
C1200    C      0.745990000000     0.505800000000     0.886760000000    -0.0644947  
C1201    C      0.279830000000     0.663990000000     0.109100000000    -0.0643108  
C1202    C      0.298140000000     0.659560000000     0.107610000000     0.0227951  
C1203    C      0.302980000000     0.641270000000     0.105680000000    -0.0637035  
C1204    C      0.289790000000     0.627830000000     0.104640000000     0.0212944  
C1205    C      0.271510000000     0.632440000000     0.105360000000    -0.0975666  
C1206    C      0.266670000000     0.650600000000     0.107870000000     0.021861   
C1207    C      0.311980000000     0.674090000000     0.107100000000     0.0227339  
C1208    C      0.308450000000     0.690370000000     0.097970000000    -0.0642928  
C1209    C      0.321460000000     0.703880000000     0.096910000000     0.0215859  
C1210    C      0.338420000000     0.701420000000     0.104790000000    -0.0985163  
C1211    C      0.342030000000     0.685240000000     0.114010000000     0.0212447  
C1212    C      0.328920000000     0.671710000000     0.115190000000    -0.0638077  
C1213    C      0.371090000000     0.789820000000     0.167790000000    -0.0641561  
C1214    C      0.364020000000     0.806960000000     0.163640000000     0.0227784  
C1215    C      0.358000000000     0.810240000000     0.145940000000    -0.0636991  
C1216    C      0.359450000000     0.796860000000     0.132670000000     0.0214118  
C1217    C      0.366770000000     0.779880000000     0.136870000000    -0.0975472  
C1218    C      0.372330000000     0.776430000000     0.154610000000     0.0218094  
C1219    C      0.363690000000     0.821450000000     0.177610000000     0.0229282  
C1220    C      0.360560000000     0.817160000000     0.195820000000    -0.064335   
C1221    C      0.362050000000     0.830370000000     0.209180000000     0.0221916  
C1222    C      0.366380000000     0.848260000000     0.204630000000    -0.0979733  
C1223    C      0.368700000000     0.852820000000     0.186410000000     0.0216547  
C1224    C      0.367480000000     0.839530000000     0.173040000000    -0.063771   
C1225    C      0.372190000000     0.809400000000     0.840840000000    -0.0637028  
C1226    C      0.369870000000     0.804250000000     0.822710000000     0.0228268  
C1227    C      0.368160000000     0.785740000000     0.818650000000    -0.0642586  
C1228    C      0.369500000000     0.772720000000     0.832200000000     0.0222023  
C1229    C      0.372260000000     0.777890000000     0.850190000000    -0.09787    
C1230    C      0.373240000000     0.796350000000     0.854450000000     0.0213405  
C1231    C      0.370130000000     0.817990000000     0.808010000000     0.0227856  
C1232    C      0.362770000000     0.835340000000     0.810560000000    -0.0637     
C1233    C      0.363990000000     0.848450000000     0.797020000000     0.0214743  
C1234    C      0.372400000000     0.844420000000     0.780560000000    -0.0972646  
C1235    C      0.379360000000     0.827010000000     0.777810000000     0.0216657  
C1236    C      0.378360000000     0.814000000000     0.791400000000    -0.0641277  
C1237    C      0.332530000000     0.667850000000     0.879670000000    -0.0638132  
C1238    C      0.314820000000     0.672960000000     0.875410000000     0.0228566  
C1239    C      0.311140000000     0.691350000000     0.872260000000    -0.0640961  
C1240    C      0.324620000000     0.704360000000     0.874060000000     0.0217333  
C1241    C      0.342150000000     0.699260000000     0.878790000000    -0.0972074  
C1242    C      0.346070000000     0.680860000000     0.881230000000     0.0218739  
C1243    C      0.300080000000     0.659320000000     0.875220000000     0.0228338  
C1244    C      0.303110000000     0.641580000000     0.869050000000    -0.0638426  
C1245    C      0.289560000000     0.628520000000     0.870150000000     0.0216317  
C1246    C      0.272650000000     0.632970000000     0.877250000000    -0.0977829  
C1247    C      0.269420000000     0.650790000000     0.882890000000     0.0216852  
C1248    C      0.282990000000     0.663770000000     0.881990000000    -0.0641367  
C1249    C      0.372070000000     0.759770000000     0.972780000000    -0.0635748  
C1250    C      0.372780000000     0.743850000000     0.983150000000     0.0226488  
C1251    C      0.372950000000     0.727080000000     0.974220000000    -0.064242   
C1252    C      0.373230000000     0.726220000000     0.955450000000     0.0216502  
C1253    C      0.373140000000     0.742100000000     0.945100000000    -0.0969432  
C1254    C      0.372190000000     0.758890000000     0.953910000000     0.0210974  
C1255    C      0.374060000000     0.744550000000     0.003160000000     0.0228657  
C1256    C      0.385290000000     0.732350000000     0.012330000000    -0.0644448  
C1257    C      0.386200000000     0.732390000000     0.031090000000     0.0218328  
C1258    C      0.376050000000     0.744740000000     0.041210000000    -0.0977585  
C1259    C      0.365130000000     0.757280000000     0.032140000000     0.0211486  
C1260    C      0.364110000000     0.757170000000     0.013270000000    -0.0638536  
C1261    C      0.589220000000     0.816960000000     0.191740000000    -0.0642406  
C1262    C      0.597060000000     0.821350000000     0.175040000000     0.0228412  
C1263    C      0.603750000000     0.838960000000     0.172460000000    -0.0638899  
C1264    C      0.602290000000     0.851940000000     0.186120000000     0.0214748  
C1265    C      0.594220000000     0.847530000000     0.202660000000    -0.0976483  
C1266    C      0.587910000000     0.829860000000     0.205390000000     0.0217663  
C1267    C      0.597520000000     0.807710000000     0.160280000000     0.0228142  
C1268    C      0.600300000000     0.789320000000     0.164200000000    -0.0643053  
C1269    C      0.598890000000     0.776260000000     0.150700000000     0.0221785  
C1270    C      0.594940000000     0.781290000000     0.132900000000    -0.0978414  
C1271    C      0.592980000000     0.799700000000     0.128720000000     0.0214082  
C1272    C      0.594170000000     0.812780000000     0.142290000000    -0.0637181  
C1273    C      0.653440000000     0.692120000000     0.107360000000    -0.064194   
C1274    C      0.649000000000     0.673830000000     0.104590000000     0.0227431  
C1275    C      0.630890000000     0.669260000000     0.101570000000    -0.0636374  
C1276    C      0.617670000000     0.682680000000     0.100850000000     0.0213316  
C1277    C      0.622320000000     0.700950000000     0.102920000000    -0.0974943  
C1278    C      0.640270000000     0.705520000000     0.106400000000     0.0220479  
C1279    C      0.663300000000     0.659760000000     0.104020000000     0.0229885  
C1280    C      0.680110000000     0.663660000000     0.096250000000    -0.06426    
C1281    C      0.693360000000     0.650380000000     0.095040000000     0.0220485  
C1282    C      0.690080000000     0.632800000000     0.101340000000    -0.0975329  
C1283    C      0.673400000000     0.628850000000     0.109260000000     0.0218603  
C1284    C      0.660180000000     0.642220000000     0.110670000000    -0.0639149  
C1285    C      0.501400000000     0.726150000000     0.112590000000    -0.0637639  
C1286    C      0.490920000000     0.739160000000     0.103580000000     0.0227847  
C1287    C      0.499650000000     0.752390000000     0.093160000000    -0.0643866  
C1288    C      0.518310000000     0.752740000000     0.091890000000     0.0219642  
C1289    C      0.528780000000     0.739780000000     0.100880000000    -0.0977042  
C1290    C      0.520170000000     0.726450000000     0.111230000000     0.0211381  
C1291    C      0.470970000000     0.739020000000     0.104740000000     0.0228068  
C1292    C      0.461270000000     0.722700000000     0.104180000000    -0.0636974  
C1293    C      0.442470000000     0.722840000000     0.103830000000     0.0214609  
C1294    C      0.433050000000     0.739290000000     0.103910000000    -0.0967672  
C1295    C      0.442710000000     0.755540000000     0.105050000000     0.021756   
C1296    C      0.461430000000     0.755410000000     0.105570000000    -0.0643238  
C1297    C      0.593930000000     0.789290000000     0.817050000000    -0.0640956  
C1298    C      0.602130000000     0.805850000000     0.821460000000     0.0225976  
C1299    C      0.608980000000     0.808210000000     0.838990000000    -0.0637295  
C1300    C      0.607350000000     0.794460000000     0.851860000000     0.0212423  
C1301    C      0.598900000000     0.778060000000     0.847430000000    -0.0977642  
C1302    C      0.592410000000     0.775560000000     0.829840000000     0.0215668  
C1303    C      0.602800000000     0.820720000000     0.807960000000     0.0230315  
C1304    C      0.605560000000     0.816850000000     0.789600000000    -0.0647078  
C1305    C      0.604280000000     0.830460000000     0.776650000000     0.0224568  
C1306    C      0.600440000000     0.848330000000     0.781740000000    -0.0997148  
C1307    C      0.598530000000     0.852440000000     0.800120000000     0.0220364  
C1308    C      0.599620000000     0.838760000000     0.813100000000    -0.0641377  
C1309    C      0.657600000000     0.688150000000     0.881470000000    -0.0642061  
C1310    C      0.653500000000     0.671760000000     0.872770000000     0.0227711  
C1311    C      0.636210000000     0.669470000000     0.865450000000    -0.0637258  
C1312    C      0.623280000000     0.683120000000     0.867080000000     0.0212425  
C1313    C      0.627420000000     0.699360000000     0.875980000000    -0.0977194  
C1314    C      0.644760000000     0.701790000000     0.882970000000     0.0217398  
C1315    C      0.667090000000     0.657000000000     0.872040000000     0.0227204  
C1316    C      0.685420000000     0.661090000000     0.869930000000    -0.0642317  
C1317    C      0.698400000000     0.647530000000     0.871150000000     0.0219092  
C1318    C      0.693360000000     0.629510000000     0.874240000000    -0.0976314  
C1319    C      0.675040000000     0.625200000000     0.875490000000     0.0211959  
C1320    C      0.662030000000     0.638820000000     0.874490000000    -0.0636268  
C1321    C      0.503880000000     0.751040000000     0.884150000000    -0.0643447  
C1322    C      0.494690000000     0.734450000000     0.883360000000     0.0225606  
C1323    C      0.504740000000     0.718410000000     0.881830000000    -0.0637153  
C1324    C      0.523550000000     0.718960000000     0.881590000000     0.0212108  
C1325    C      0.532620000000     0.735560000000     0.882950000000    -0.0982698  
C1326    C      0.522590000000     0.751580000000     0.884030000000     0.0219807  
C1327    C      0.474760000000     0.734070000000     0.884690000000     0.0230461  
C1328    C      0.465900000000     0.745850000000     0.896600000000    -0.064966   
C1329    C      0.447210000000     0.746180000000     0.897530000000     0.0225481  
C1330    C      0.436870000000     0.734630000000     0.886700000000    -0.100256   
C1331    C      0.445630000000     0.722510000000     0.875050000000     0.0217134  
C1332    C      0.464420000000     0.722250000000     0.874040000000    -0.0642505  
C1333    C      0.593370000000     0.759250000000     0.970190000000    -0.0637577  
C1334    C      0.592500000000     0.743210000000     0.980370000000     0.0226825  
C1335    C      0.592210000000     0.726550000000     0.971240000000    -0.0644636  
C1336    C      0.592110000000     0.725920000000     0.952460000000     0.0221328  
C1337    C      0.592490000000     0.741920000000     0.942310000000    -0.0982406  
C1338    C      0.593410000000     0.758600000000     0.951320000000     0.0214355  
C1339    C      0.591210000000     0.743690000000     0.000370000000     0.0229547  
C1340    C      0.601280000000     0.756080000000     0.010640000000    -0.0639473  
C1341    C      0.600100000000     0.756100000000     0.029500000000     0.0213898  
C1342    C      0.588890000000     0.743700000000     0.038390000000    -0.0984679  
C1343    C      0.578710000000     0.731500000000     0.028120000000     0.0223705  
C1344    C      0.579800000000     0.731540000000     0.009370000000    -0.0646576  
H1       H      0.576340000000     0.979420000000     0.720890000000     0.0482721  
H2       H      0.575160000000     0.946630000000     0.720700000000     0.0409397  
H3       H      0.610440000000     0.944910000000     0.766880000000     0.0412034  
H4       H      0.612050000000     0.977990000000     0.766790000000     0.0482637  
H5       H      0.594070000000     0.005040000000     0.772370000000     0.0486456  
H6       H      0.593310000000     0.038120000000     0.771210000000     0.0405549  
H7       H      0.595600000000     0.036030000000     0.713090000000     0.0402203  
H8       H      0.596920000000     0.003230000000     0.714210000000     0.0484878  
H9       H      0.471450000000     0.071950000000     0.751810000000     0.0482107  
H10      H      0.438880000000     0.071050000000     0.752890000000     0.0404497  
H11      H      0.436240000000     0.116750000000     0.716770000000     0.0404741  
H12      H      0.469090000000     0.118110000000     0.716140000000     0.0483138  
H13      H      0.496110000000     0.102900000000     0.706160000000     0.0484373  
H14      H      0.528970000000     0.103650000000     0.707070000000     0.0408879  
H15      H      0.527610000000     0.090380000000     0.763740000000     0.0404161  
H16      H      0.495030000000     0.090250000000     0.763040000000     0.0482586  
H17      H      0.359410000000     0.974060000000     0.769800000000     0.0484399  
H18      H      0.362430000000     0.941080000000     0.769590000000     0.0411313  
H19      H      0.394670000000     0.944490000000     0.721320000000     0.0407096  
H20      H      0.392080000000     0.977210000000     0.721760000000     0.0484495  
H21      H      0.376490000000     0.001990000000     0.774200000000     0.0483945  
H22      H      0.375640000000     0.035040000000     0.772980000000     0.0415275  
H23      H      0.369320000000     0.032670000000     0.715170000000     0.040698   
H24      H      0.369650000000     0.999830000000     0.716390000000     0.0477785  
H25      H      0.472740000000     0.880180000000     0.710190000000     0.0484651  
H26      H      0.439900000000     0.880370000000     0.710480000000     0.0408236  
H27      H      0.440430000000     0.876590000000     0.768550000000     0.0401226  
H28      H      0.473040000000     0.875640000000     0.768290000000     0.0481206  
H29      H      0.496870000000     0.896000000000     0.763320000000     0.0483276  
H30      H      0.529390000000     0.897590000000     0.764150000000     0.0407584  
H31      H      0.532400000000     0.865100000000     0.715890000000     0.0408249  
H32      H      0.499600000000     0.862880000000     0.715380000000     0.0483416  
H33      H      0.756520000000     0.975450000000     0.361170000000     0.0484629  
H34      H      0.756180000000     0.942360000000     0.362430000000     0.0407011  
H35      H      0.711780000000     0.944380000000     0.399820000000     0.041139   
H36      H      0.712470000000     0.977140000000     0.399090000000     0.0483327  
H37      H      0.705320000000     0.001440000000     0.379630000000     0.0481492  
H38      H      0.704920000000     0.034230000000     0.381190000000     0.0404082  
H39      H      0.762880000000     0.035220000000     0.379720000000     0.0407608  
H40      H      0.763360000000     0.002130000000     0.378850000000     0.0484454  
H41      H      0.670120000000     0.111460000000     0.694180000000     0.0481312  
H42      H      0.646800000000     0.110860000000     0.717180000000     0.0398974  
H43      H      0.606720000000     0.101780000000     0.676110000000     0.0416325  
H44      H      0.630120000000     0.101690000000     0.653090000000     0.0484363  
H45      H      0.684600000000     0.089710000000     0.675740000000     0.0482502  
H46      H      0.708080000000     0.085760000000     0.653360000000     0.0408052  
H47      H      0.675720000000     0.113840000000     0.614000000000     0.041646   
H48      H      0.652310000000     0.118390000000     0.636660000000     0.0483202  
H49      H      0.706040000000     0.113730000000     0.503920000000     0.0482713  
H50      H      0.706970000000     0.111760000000     0.536860000000     0.0407291  
H51      H      0.754430000000     0.078400000000     0.533430000000     0.0408906  
H52      H      0.753180000000     0.079750000000     0.500790000000     0.0482104  
H53      H      0.758270000000     0.100040000000     0.476840000000     0.0482014  
H54      H      0.758270000000     0.099220000000     0.444120000000     0.0400456  
H55      H      0.700360000000     0.096350000000     0.443990000000     0.040273   
H56      H      0.700320000000     0.096440000000     0.476980000000     0.0484577  
H57      H      0.647950000000     0.874450000000     0.638080000000     0.0484313  
H58      H      0.670740000000     0.874290000000     0.614450000000     0.0415633  
H59      H      0.712030000000     0.866610000000     0.654580000000     0.0398656  
H60      H      0.689270000000     0.866040000000     0.678150000000     0.0481384  
H61      H      0.631950000000     0.857950000000     0.660670000000     0.0483132  
H62      H      0.609440000000     0.862520000000     0.684220000000     0.0416769  
H63      H      0.648420000000     0.891570000000     0.716120000000     0.0407341  
H64      H      0.670650000000     0.887620000000     0.692490000000     0.0481977  
H65      H      0.700900000000     0.873630000000     0.502730000000     0.0484281  
H66      H      0.701320000000     0.873820000000     0.535730000000     0.0406734  
H67      H      0.758810000000     0.881330000000     0.534880000000     0.0401702  
H68      H      0.758570000000     0.880410000000     0.502180000000     0.0481775  
H69      H      0.749720000000     0.899270000000     0.478190000000     0.0483094  
H70      H      0.750550000000     0.900370000000     0.445540000000     0.0409582  
H71      H      0.709690000000     0.859040000000     0.442860000000     0.0404929  
H72      H      0.709300000000     0.857370000000     0.475840000000     0.0483742  
H73      H      0.764960000000     0.972170000000     0.600420000000     0.0485005  
H74      H      0.764290000000     0.939070000000     0.600080000000     0.0404168  
H75      H      0.706330000000     0.940350000000     0.600500000000     0.0401488  
H76      H      0.706940000000     0.973170000000     0.601420000000     0.0482604  
H77      H      0.713810000000     0.996960000000     0.580920000000     0.0479201  
H78      H      0.713200000000     0.029750000000     0.579540000000     0.0409507  
H79      H      0.758250000000     0.032310000000     0.616110000000     0.0413998  
H80      H      0.758560000000     0.999260000000     0.617950000000     0.0479512  
H81      H      0.777960000000     0.172430000000     0.615290000000     0.0480644  
H82      H      0.755080000000     0.149120000000     0.612260000000     0.03927    
H83      H      0.795870000000     0.110220000000     0.597950000000     0.0404635  
H84      H      0.818760000000     0.133690000000     0.600140000000     0.0484523  
H85      H      0.835520000000     0.153530000000     0.618790000000     0.0482813  
H86      H      0.858290000000     0.177180000000     0.616340000000     0.0413247  
H87      H      0.818600000000     0.213620000000     0.594440000000     0.0403125  
H88      H      0.796080000000     0.189950000000     0.596140000000     0.0480802  
H89      H      0.968820000000     0.210370000000     0.620110000000     0.0484756  
H90      H      0.936050000000     0.210400000000     0.617280000000     0.0407657  
H91      H      0.939460000000     0.254360000000     0.579120000000     0.0404374  
H92      H      0.971970000000     0.254010000000     0.581500000000     0.0484623  
H93      H      0.996520000000     0.203730000000     0.603960000000     0.0473691  
H94      H      0.029360000000     0.204930000000     0.604590000000     0.0418146  
H95      H      0.027220000000     0.263240000000     0.602780000000     0.0408893  
H96      H      0.994610000000     0.262120000000     0.602740000000     0.0471305  
H97      H      0.778880000000     0.176300000000     0.385870000000     0.0481727  
H98      H      0.755110000000     0.153940000000     0.387910000000     0.040694   
H99      H      0.789010000000     0.114720000000     0.361440000000     0.041532   
H100     H      0.812750000000     0.137390000000     0.358750000000     0.0484182  
H101     H      0.833820000000     0.152910000000     0.377480000000     0.0485379  
H102     H      0.857550000000     0.175530000000     0.379890000000     0.0406886  
H103     H      0.818920000000     0.217770000000     0.369440000000     0.0394637  
H104     H      0.795330000000     0.195210000000     0.366270000000     0.0481934  
H105     H      0.855270000000     0.263100000000     0.477630000000     0.048239   
H106     H      0.856970000000     0.262980000000     0.444670000000     0.040615   
H107     H      0.889600000000     0.214760000000     0.446640000000     0.0409663  
H108     H      0.888530000000     0.215220000000     0.479300000000     0.0483232  
H109     H      0.868980000000     0.209900000000     0.503660000000     0.0480598  
H110     H      0.870760000000     0.209440000000     0.536370000000     0.0400162  
H111     H      0.873950000000     0.267720000000     0.537180000000     0.0411069  
H112     H      0.872920000000     0.268220000000     0.504240000000     0.0483887  
H113     H      0.995260000000     0.205720000000     0.380710000000     0.0474637  
H114     H      0.028110000000     0.206230000000     0.381120000000     0.0412286  
H115     H      0.027150000000     0.264600000000     0.380980000000     0.0404612  
H116     H      0.994530000000     0.264150000000     0.379980000000     0.0471461  
H117     H      0.970800000000     0.257190000000     0.400400000000     0.0484192  
H118     H      0.938230000000     0.257800000000     0.401770000000     0.0407783  
H119     H      0.935680000000     0.212630000000     0.364980000000     0.0412488  
H120     H      0.968500000000     0.212330000000     0.363140000000     0.0485524  
H121     H      0.083970000000     0.212730000000     0.480040000000     0.0482831  
H122     H      0.083110000000     0.211980000000     0.447340000000     0.0401789  
H123     H      0.095960000000     0.268880000000     0.445520000000     0.040725   
H124     H      0.096190000000     0.269840000000     0.478520000000     0.0484708  
H125     H      0.111840000000     0.259980000000     0.505470000000     0.0483905  
H126     H      0.110850000000     0.259590000000     0.538490000000     0.0398015  
H127     H      0.065560000000     0.223180000000     0.536570000000     0.0404387  
H128     H      0.066090000000     0.224040000000     0.503890000000     0.0484426  
H129     H      0.129520000000     0.151270000000     0.602090000000     0.0482704  
H130     H      0.106370000000     0.174540000000     0.600730000000     0.0402943  
H131     H      0.146570000000     0.215700000000     0.609190000000     0.0393982  
H132     H      0.169630000000     0.192510000000     0.611530000000     0.0479393  
H133     H      0.185550000000     0.172870000000     0.592900000000     0.0479969  
H134     H      0.208760000000     0.149860000000     0.591460000000     0.0398688  
H135     H      0.173320000000     0.111700000000     0.617390000000     0.0406202  
H136     H      0.150220000000     0.135020000000     0.619710000000     0.0482684  
H137     H      0.312570000000     0.116670000000     0.639620000000     0.0484278  
H138     H      0.289030000000     0.112910000000     0.616960000000     0.041076   
H139     H      0.257080000000     0.083070000000     0.655370000000     0.0398288  
H140     H      0.280680000000     0.086330000000     0.677780000000     0.0482589  
H141     H      0.295270000000     0.107850000000     0.696830000000     0.0481171  
H142     H      0.318820000000     0.106870000000     0.719590000000     0.0398586  
H143     H      0.358500000000     0.098500000000     0.677970000000     0.0414649  
H144     H      0.334870000000     0.098900000000     0.655180000000     0.0485118  
H145     H      0.319330000000     0.880020000000     0.639370000000     0.0481418  
H146     H      0.295520000000     0.881340000000     0.616720000000     0.0397652  
H147     H      0.256520000000     0.866690000000     0.657240000000     0.0409329  
H148     H      0.280250000000     0.864760000000     0.679680000000     0.0483137  
H149     H      0.298620000000     0.885700000000     0.695610000000     0.0483974  
H150     H      0.321550000000     0.887540000000     0.718770000000     0.0406918  
H151     H      0.360050000000     0.863310000000     0.682550000000     0.0409065  
H152     H      0.336800000000     0.860950000000     0.659330000000     0.0483517  
H153     H      0.221910000000     0.973440000000     0.628830000000     0.0488643  
H154     H      0.223160000000     0.940370000000     0.629520000000     0.039115   
H155     H      0.214040000000     0.938920000000     0.572030000000     0.0398961  
H156     H      0.212880000000     0.971880000000     0.571380000000     0.048955   
H157     H      0.237660000000     0.994880000000     0.576710000000     0.0482067  
H158     H      0.241330000000     0.027600000000     0.575560000000     0.0401671  
H159     H      0.204640000000     0.033430000000     0.620280000000     0.0407583  
H160     H      0.201090000000     0.000470000000     0.621520000000     0.0487637  
H161     H      0.272180000000     0.875300000000     0.481590000000     0.0486682  
H162     H      0.268870000000     0.878780000000     0.448870000000     0.0407302  
H163     H      0.211200000000     0.876450000000     0.454630000000     0.0402358  
H164     H      0.214500000000     0.872980000000     0.487090000000     0.0488047  
H165     H      0.264740000000     0.893850000000     0.509430000000     0.0485206  
H166     H      0.264110000000     0.894180000000     0.542400000000     0.0406861  
H167     H      0.225390000000     0.850680000000     0.542000000000     0.0407897  
H168     H      0.226100000000     0.850320000000     0.509150000000     0.0485454  
H169     H      0.167700000000     0.188700000000     0.388730000000     0.0485811  
H170     H      0.145640000000     0.212770000000     0.391030000000     0.0408166  
H171     H      0.105780000000     0.178290000000     0.366400000000     0.0418361  
H172     H      0.128110000000     0.154170000000     0.363660000000     0.0484576  
H173     H      0.144820000000     0.133370000000     0.382900000000     0.0483931  
H174     H      0.167880000000     0.109900000000     0.384760000000     0.0397439  
H175     H      0.208220000000     0.148990000000     0.369590000000     0.0410031  
H176     H      0.185240000000     0.172230000000     0.367210000000     0.0485213  
H177     H      0.239790000000     0.999610000000     0.363210000000     0.0483543  
H178     H      0.240080000000     0.032530000000     0.362320000000     0.0405345  
H179     H      0.200870000000     0.034110000000     0.405210000000     0.0394705  
H180     H      0.200620000000     0.001000000000     0.406100000000     0.0485728  
H181     H      0.251070000000     0.978050000000     0.386760000000     0.0486222  
H182     H      0.254230000000     0.945430000000     0.389800000000     0.0402512  
H183     H      0.196500000000     0.939750000000     0.390580000000     0.0407964  
H184     H      0.193350000000     0.972640000000     0.387560000000     0.0487828  
H185     H      0.260810000000     0.076460000000     0.479670000000     0.0487063  
H186     H      0.260290000000     0.076100000000     0.446680000000     0.0391839  
H187     H      0.223120000000     0.120940000000     0.446900000000     0.0402751  
H188     H      0.223760000000     0.121360000000     0.479740000000     0.0487378  
H189     H      0.269280000000     0.094920000000     0.507000000000     0.048593   
H190     H      0.266410000000     0.092330000000     0.539810000000     0.0417399  
H191     H      0.208820000000     0.097390000000     0.535040000000     0.0404601  
H192     H      0.211680000000     0.099910000000     0.502440000000     0.0484633  
H193     H      0.971320000000     0.599430000000     0.714430000000     0.0482524  
H194     H      0.938710000000     0.598270000000     0.713470000000     0.0402859  
H195     H      0.936980000000     0.594680000000     0.771540000000     0.0409387  
H196     H      0.969820000000     0.595270000000     0.772530000000     0.0485169  
H197     H      0.996780000000     0.613280000000     0.767260000000     0.0473571  
H198     H      0.029610000000     0.611190000000     0.767310000000     0.0413502  
H199     H      0.027390000000     0.576780000000     0.720320000000     0.0414863  
H200     H      0.994850000000     0.578420000000     0.720540000000     0.0472305  
H201     H      0.857860000000     0.302390000000     0.694980000000     0.0483664  
H202     H      0.860890000000     0.325280000000     0.718400000000     0.0396671  
H203     H      0.884690000000     0.361880000000     0.679830000000     0.03991    
H204     H      0.882040000000     0.338810000000     0.656430000000     0.0485486  
H205     H      0.861210000000     0.321190000000     0.637930000000     0.0483896  
H206     H      0.862770000000     0.297290000000     0.615170000000     0.0411354  
H207     H      0.879620000000     0.259350000000     0.656070000000     0.0404199  
H208     H      0.878410000000     0.283160000000     0.678630000000     0.0484737  
H209     H      0.867760000000     0.499120000000     0.705150000000     0.0485394  
H210     H      0.866440000000     0.532150000000     0.707800000000     0.0412479  
H211     H      0.894240000000     0.529010000000     0.758810000000     0.0408072  
H212     H      0.895390000000     0.496280000000     0.756270000000     0.0483691  
H213     H      0.910590000000     0.473570000000     0.737650000000     0.0481349  
H214     H      0.911450000000     0.440710000000     0.739040000000     0.0406179  
H215     H      0.856220000000     0.438370000000     0.721400000000     0.0407295  
H216     H      0.855280000000     0.471460000000     0.720250000000     0.0485292  
H217     H      0.111470000000     0.337480000000     0.663080000000     0.0483501  
H218     H      0.108830000000     0.360080000000     0.687030000000     0.0407098  
H219     H      0.078360000000     0.322210000000     0.719070000000     0.040483   
H220     H      0.080470000000     0.299940000000     0.695120000000     0.0481864  
H221     H      0.101160000000     0.280300000000     0.680560000000     0.0481603  
H222     H      0.099620000000     0.257440000000     0.657000000000     0.0399545  
H223     H      0.092680000000     0.299260000000     0.616990000000     0.0414412  
H224     H      0.093590000000     0.322190000000     0.640650000000     0.048513   
H225     H      0.970840000000     0.397340000000     0.776680000000     0.0490245  
H226     H      0.938100000000     0.397110000000     0.773950000000     0.0418069  
H227     H      0.941260000000     0.349560000000     0.740310000000     0.0391958  
H228     H      0.974000000000     0.349620000000     0.743400000000     0.0490192  
H229     H      0.999790000000     0.347770000000     0.768860000000     0.0479569  
H230     H      0.032580000000     0.350120000000     0.766140000000     0.0401865  
H231     H      0.027000000000     0.405000000000     0.747070000000     0.0393589  
H232     H      0.994420000000     0.402770000000     0.750220000000     0.0481763  
H233     H      0.090440000000     0.471250000000     0.712770000000     0.0485105  
H234     H      0.089620000000     0.438200000000     0.713850000000     0.0417385  
H235     H      0.098600000000     0.439920000000     0.771330000000     0.0406791  
H236     H      0.099940000000     0.472750000000     0.770220000000     0.0480937  
H237     H      0.078780000000     0.496720000000     0.765920000000     0.0484048  
H238     H      0.077290000000     0.529490000000     0.766010000000     0.041155   
H239     H      0.107320000000     0.531200000000     0.716230000000     0.0410107  
H240     H      0.109230000000     0.498130000000     0.716350000000     0.0483999  
H241     H      0.185950000000     0.800400000000     0.394440000000     0.0481631  
H242     H      0.209220000000     0.823230000000     0.397290000000     0.040269   
H243     H      0.176040000000     0.861360000000     0.368440000000     0.0412573  
H244     H      0.152870000000     0.838240000000     0.364920000000     0.0483666  
H245     H      0.131030000000     0.822450000000     0.382250000000     0.0484029  
H246     H      0.107600000000     0.799410000000     0.382840000000     0.0410061  
H247     H      0.147670000000     0.757860000000     0.375650000000     0.0399124  
H248     H      0.171040000000     0.780840000000     0.374300000000     0.0479914  
H249     H      0.797050000000     0.786540000000     0.388170000000     0.0483111  
H250     H      0.819830000000     0.763170000000     0.389850000000     0.0408778  
H251     H      0.857210000000     0.797800000000     0.361750000000     0.0410661  
H252     H      0.834060000000     0.821160000000     0.359440000000     0.0483154  
H253     H      0.818090000000     0.842400000000     0.377810000000     0.0483922  
H254     H      0.794740000000     0.865520000000     0.379640000000     0.0406398  
H255     H      0.754200000000     0.824730000000     0.370940000000     0.0398971  
H256     H      0.777440000000     0.801760000000     0.368350000000     0.0482227  
H257     H      0.970800000000     0.712420000000     0.378170000000     0.0482697  
H258     H      0.938190000000     0.712290000000     0.378760000000     0.040298   
H259     H      0.937790000000     0.770660000000     0.379710000000     0.0405137  
H260     H      0.970670000000     0.770840000000     0.379730000000     0.0485113  
H261     H      0.997720000000     0.764200000000     0.362490000000     0.0472849  
H262     H      0.030540000000     0.763320000000     0.364720000000     0.0412719  
H263     H      0.026780000000     0.717570000000     0.400700000000     0.0415913  
H264     H      0.994280000000     0.718750000000     0.398950000000     0.0472724  
H265     H      0.127560000000     0.820840000000     0.618750000000     0.0482104  
H266     H      0.105130000000     0.796940000000     0.615520000000     0.0414904  
H267     H      0.146800000000     0.759440000000     0.600030000000     0.0404294  
H268     H      0.169050000000     0.783300000000     0.602600000000     0.0483427  
H269     H      0.184930000000     0.802130000000     0.622850000000     0.0483023  
H270     H      0.208160000000     0.825170000000     0.620530000000     0.0402986  
H271     H      0.169480000000     0.862670000000     0.598590000000     0.0393762  
H272     H      0.146300000000     0.839400000000     0.600210000000     0.0483768  
H273     H      0.112620000000     0.655050000000     0.641290000000     0.0483944  
H274     H      0.109980000000     0.678640000000     0.618320000000     0.0409233  
H275     H      0.078260000000     0.710840000000     0.654980000000     0.0406549  
H276     H      0.080340000000     0.687220000000     0.677580000000     0.0483143  
H277     H      0.100560000000     0.673170000000     0.697840000000     0.0482142  
H278     H      0.098780000000     0.649860000000     0.720900000000     0.0401984  
H279     H      0.093830000000     0.608990000000     0.679640000000     0.0408145  
H280     H      0.094930000000     0.632430000000     0.656450000000     0.0484141  
H281     H      0.111020000000     0.710510000000     0.478060000000     0.0483841  
H282     H      0.109090000000     0.711000000000     0.445080000000     0.0407695  
H283     H      0.074760000000     0.757980000000     0.447960000000     0.0412824  
H284     H      0.076220000000     0.757200000000     0.480600000000     0.0484767  
H285     H      0.096710000000     0.763010000000     0.504500000000     0.0482176  
H286     H      0.095240000000     0.763390000000     0.537220000000     0.0402478  
H287     H      0.092340000000     0.705090000000     0.537930000000     0.0410457  
H288     H      0.093200000000     0.704690000000     0.504950000000     0.0486043  
H289     H      0.794410000000     0.777480000000     0.604560000000     0.048178   
H290     H      0.817910000000     0.754800000000     0.601920000000     0.0398313  
H291     H      0.858100000000     0.796850000000     0.601320000000     0.0405579  
H292     H      0.834530000000     0.819720000000     0.603110000000     0.048337   
H293     H      0.811770000000     0.833620000000     0.620820000000     0.0483737  
H294     H      0.788420000000     0.856780000000     0.618950000000     0.0412151  
H295     H      0.756850000000     0.821670000000     0.584910000000     0.0406806  
H296     H      0.780320000000     0.798950000000     0.586100000000     0.0481782  
H297     H      0.858490000000     0.691400000000     0.675650000000     0.0480116  
H298     H      0.861390000000     0.714250000000     0.652210000000     0.039685   
H299     H      0.874070000000     0.672710000000     0.613370000000     0.0413122  
H300     H      0.871970000000     0.649840000000     0.636950000000     0.048459   
H301     H      0.853570000000     0.633410000000     0.657320000000     0.0482948  
H302     H      0.856480000000     0.610540000000     0.680900000000     0.0412724  
H303     H      0.879990000000     0.650360000000     0.716320000000     0.0405653  
H304     H      0.877820000000     0.672950000000     0.692690000000     0.0482311  
H305     H      0.897980000000     0.752410000000     0.500620000000     0.0483605  
H306     H      0.898400000000     0.752550000000     0.533320000000     0.0403814  
H307     H      0.857460000000     0.711220000000     0.534250000000     0.040275   
H308     H      0.856590000000     0.711450000000     0.501230000000     0.0485042  
H309     H      0.873620000000     0.704000000000     0.474150000000     0.048412   
H310     H      0.873680000000     0.705730000000     0.441170000000     0.0409358  
H311     H      0.879280000000     0.763750000000     0.444300000000     0.0406565  
H312     H      0.878650000000     0.762150000000     0.476990000000     0.0481608  
H313     H      0.968730000000     0.768480000000     0.601720000000     0.0484639  
H314     H      0.935890000000     0.767200000000     0.601700000000     0.0412089  
H315     H      0.938190000000     0.708900000000     0.599980000000     0.0404072  
H316     H      0.970800000000     0.710090000000     0.600570000000     0.048222   
H317     H      0.996000000000     0.761930000000     0.618550000000     0.0473248  
H318     H      0.028820000000     0.762040000000     0.616540000000     0.0416672  
H319     H      0.026560000000     0.718010000000     0.578380000000     0.0411092  
H320     H      0.993980000000     0.718220000000     0.579930000000     0.0472331  
H321     H      0.172540000000     0.379480000000     0.789150000000     0.0481834  
H322     H      0.149160000000     0.380620000000     0.766350000000     0.0396181  
H323     H      0.110860000000     0.359520000000     0.804640000000     0.0406876  
H324     H      0.134480000000     0.357510000000     0.827360000000     0.0483489  
H325     H      0.151330000000     0.376720000000     0.846040000000     0.0484059  
H326     H      0.174580000000     0.379730000000     0.868880000000     0.0417999  
H327     H      0.214920000000     0.365550000000     0.829560000000     0.0393011  
H328     H      0.191620000000     0.361620000000     0.806820000000     0.0478041  
H329     H      0.260420000000     0.384980000000     0.005150000000     0.0482444  
H330     H      0.260910000000     0.385350000000     0.037880000000     0.0403796  
H331     H      0.203310000000     0.378610000000     0.039000000000     0.0408195  
H332     H      0.202710000000     0.378810000000     0.006010000000     0.0485616  
H333     H      0.211320000000     0.361920000000     0.979220000000     0.0485103  
H334     H      0.212000000000     0.362980000000     0.946240000000     0.0406856  
H335     H      0.252230000000     0.404970000000     0.948500000000     0.0401739  
H336     H      0.251190000000     0.404340000000     0.981220000000     0.0483676  
H337     H      0.214080000000     0.500710000000     0.082910000000     0.0484102  
H338     H      0.212910000000     0.533440000000     0.081600000000     0.0411461  
H339     H      0.256600000000     0.536790000000     0.119740000000     0.0407262  
H340     H      0.257420000000     0.503730000000     0.121560000000     0.0484098  
H341     H      0.264950000000     0.476840000000     0.104430000000     0.0485095  
H342     H      0.264960000000     0.443740000000     0.103890000000     0.0406343  
H343     H      0.207030000000     0.443850000000     0.101530000000     0.0402974  
H344     H      0.206930000000     0.476660000000     0.102740000000     0.0482341  
H345     H      0.152300000000     0.617730000000     0.842090000000     0.0483682  
H346     H      0.175870000000     0.615960000000     0.865000000000     0.0408723  
H347     H      0.209140000000     0.585700000000     0.828090000000     0.0404965  
H348     H      0.185560000000     0.586860000000     0.805550000000     0.0482648  
H349     H      0.170410000000     0.606210000000     0.785330000000     0.0481482  
H350     H      0.147110000000     0.603260000000     0.762530000000     0.0399566  
H351     H      0.107200000000     0.596840000000     0.804240000000     0.0408628  
H352     H      0.130620000000     0.599050000000     0.827170000000     0.048378   
H353     H      0.210460000000     0.476950000000     0.879090000000     0.0482595  
H354     H      0.209910000000     0.444100000000     0.879320000000     0.0404395  
H355     H      0.267850000000     0.442950000000     0.881240000000     0.0409942  
H356     H      0.268440000000     0.476040000000     0.881570000000     0.0484388  
H357     H      0.216840000000     0.500040000000     0.900680000000     0.0483989  
H358     H      0.215850000000     0.532790000000     0.902800000000     0.0407221  
H359     H      0.261610000000     0.536680000000     0.867260000000     0.0413007  
H360     H      0.262340000000     0.503670000000     0.864690000000     0.0483833  
H361     H      0.201560000000     0.600140000000     0.978240000000     0.0485431  
H362     H      0.202250000000     0.599230000000     0.945270000000     0.0411476  
H363     H      0.260190000000     0.601150000000     0.946510000000     0.040347   
H364     H      0.259540000000     0.602690000000     0.979230000000     0.0481435  
H365     H      0.253250000000     0.582470000000     0.003290000000     0.0484291  
H366     H      0.253610000000     0.581260000000     0.035950000000     0.0411472  
H367     H      0.207380000000     0.616450000000     0.037980000000     0.040814   
H368     H      0.207310000000     0.618150000000     0.005000000000     0.0483978  
H369     H      0.167690000000     0.591690000000     0.194330000000     0.0480931  
H370     H      0.144820000000     0.589550000000     0.217550000000     0.0403316  
H371     H      0.106150000000     0.613980000000     0.181670000000     0.0411675  
H372     H      0.129310000000     0.616880000000     0.158510000000     0.0483512  
H373     H      0.146120000000     0.598950000000     0.138080000000     0.048471   
H374     H      0.169400000000     0.597610000000     0.114980000000     0.0404886  
H375     H      0.209700000000     0.609120000000     0.155200000000     0.0396937  
H376     H      0.186460000000     0.611310000000     0.178160000000     0.0481118  
H377     H      0.110340000000     0.635880000000     0.321650000000     0.0484357  
H378     H      0.107380000000     0.613030000000     0.298000000000     0.0409702  
H379     H      0.077560000000     0.650960000000     0.265410000000     0.040381   
H380     H      0.079940000000     0.673480000000     0.289100000000     0.048238   
H381     H      0.100360000000     0.693110000000     0.303740000000     0.0481522  
H382     H      0.099020000000     0.716080000000     0.327180000000     0.0400782  
H383     H      0.092160000000     0.674530000000     0.367460000000     0.0408536  
H384     H      0.092820000000     0.651460000000     0.343920000000     0.04837    
H385     H      0.859180000000     0.678910000000     0.280390000000     0.0480225  
H386     H      0.861430000000     0.655560000000     0.257330000000     0.0396151  
H387     H      0.868210000000     0.615060000000     0.298680000000     0.0419257  
H388     H      0.866780000000     0.638440000000     0.321760000000     0.048523   
H389     H      0.849430000000     0.660240000000     0.337510000000     0.0483589  
H390     H      0.853270000000     0.683160000000     0.360900000000     0.0412739  
H391     H      0.882120000000     0.716880000000     0.323240000000     0.0406047  
H392     H      0.878990000000     0.693840000000     0.300150000000     0.0481594  
H393     H      0.968370000000     0.602130000000     0.262450000000     0.0484272  
H394     H      0.935760000000     0.602630000000     0.263000000000     0.0401148  
H395     H      0.934560000000     0.598720000000     0.204930000000     0.0401948  
H396     H      0.967440000000     0.597690000000     0.204380000000     0.0484722  
H397     H      0.990910000000     0.579790000000     0.256720000000     0.0483138  
H398     H      0.023400000000     0.577360000000     0.258010000000     0.0407981  
H399     H      0.027940000000     0.611700000000     0.211150000000     0.0415309  
H400     H      0.995190000000     0.614560000000     0.210110000000     0.0475506  
H401     H      0.881000000000     0.286970000000     0.305250000000     0.0482193  
H402     H      0.883380000000     0.263070000000     0.327540000000     0.0409856  
H403     H      0.857730000000     0.297310000000     0.367050000000     0.0414067  
H404     H      0.854770000000     0.321210000000     0.344450000000     0.0483565  
H405     H      0.860270000000     0.302920000000     0.286930000000     0.0481838  
H406     H      0.862270000000     0.326320000000     0.263940000000     0.0395468  
H407     H      0.874190000000     0.365970000000     0.304930000000     0.0407312  
H408     H      0.872880000000     0.342430000000     0.327960000000     0.0484899  
H409     H      0.854770000000     0.477170000000     0.263630000000     0.0484813  
H410     H      0.856200000000     0.444120000000     0.264220000000     0.0408708  
H411     H      0.898810000000     0.445360000000     0.224750000000     0.0407273  
H412     H      0.897890000000     0.478170000000     0.224620000000     0.0483142  
H413     H      0.870610000000     0.504460000000     0.271670000000     0.0485048  
H414     H      0.870070000000     0.537480000000     0.269940000000     0.0410183  
H415     H      0.879290000000     0.534550000000     0.212540000000     0.040274   
H416     H      0.879160000000     0.501750000000     0.214090000000     0.0482359  
H417     H      0.112910000000     0.338210000000     0.322140000000     0.0482986  
H418     H      0.109670000000     0.361050000000     0.298560000000     0.0415804  
H419     H      0.083710000000     0.321720000000     0.264330000000     0.0408076  
H420     H      0.086230000000     0.299180000000     0.287980000000     0.0482194  
H421     H      0.095110000000     0.322220000000     0.343350000000     0.0484511  
H422     H      0.093360000000     0.299420000000     0.367000000000     0.041462   
H423     H      0.103330000000     0.257550000000     0.327720000000     0.0397026  
H424     H      0.105900000000     0.280320000000     0.304150000000     0.0480122  
H425     H      0.131660000000     0.373680000000     0.156100000000     0.0484892  
H426     H      0.107800000000     0.375140000000     0.178620000000     0.0403579  
H427     H      0.147010000000     0.368470000000     0.220950000000     0.0394634  
H428     H      0.170760000000     0.366170000000     0.198550000000     0.0481546  
H429     H      0.186100000000     0.386020000000     0.179210000000     0.0481843  
H430     H      0.209890000000     0.388560000000     0.157020000000     0.0406505  
H431     H      0.177560000000     0.359330000000     0.118490000000     0.0413703  
H432     H      0.153830000000     0.356080000000     0.141030000000     0.0483051  
H433     H      0.968470000000     0.358240000000     0.216430000000     0.0483371  
H434     H      0.935700000000     0.361060000000     0.217050000000     0.0405166  
H435     H      0.939670000000     0.396250000000     0.263330000000     0.0411605  
H436     H      0.972120000000     0.394060000000     0.262350000000     0.0484238  
H437     H      0.995520000000     0.374910000000     0.210020000000     0.0473726  
H438     H      0.028360000000     0.375310000000     0.210030000000     0.0412505  
H439     H      0.028330000000     0.374910000000     0.268220000000     0.0404262  
H440     H      0.995720000000     0.373720000000     0.268290000000     0.0470863  
H441     H      0.071960000000     0.474830000000     0.220440000000     0.0483798  
H442     H      0.071380000000     0.442040000000     0.219880000000     0.0405991  
H443     H      0.105750000000     0.440400000000     0.266730000000     0.0405359  
H444     H      0.106850000000     0.473490000000     0.266990000000     0.0483866  
H445     H      0.088940000000     0.500250000000     0.272490000000     0.0484884  
H446     H      0.088350000000     0.533310000000     0.271710000000     0.0412196  
H447     H      0.090630000000     0.531920000000     0.213560000000     0.0403413  
H448     H      0.091850000000     0.499100000000     0.214300000000     0.0481299  
H449     H      0.614830000000     0.143670000000     0.817070000000     0.0483847  
H450     H      0.612430000000     0.120370000000     0.793850000000     0.0413318  
H451     H      0.577360000000     0.155030000000     0.762970000000     0.0404988  
H452     H      0.579140000000     0.177960000000     0.786330000000     0.0481058  
H453     H      0.597950000000     0.199640000000     0.799940000000     0.0480306  
H454     H      0.595910000000     0.222370000000     0.823590000000     0.0398757  
H455     H      0.596260000000     0.180330000000     0.863950000000     0.0412896  
H456     H      0.597540000000     0.157460000000     0.840300000000     0.0484085  
H457     H      0.592650000000     0.208840000000     0.976100000000     0.0484191  
H458     H      0.592900000000     0.209680000000     0.943110000000     0.0407949  
H459     H      0.592370000000     0.268030000000     0.944660000000     0.0401117  
H460     H      0.592800000000     0.267270000000     0.977390000000     0.0481855  
H461     H      0.609180000000     0.215150000000     0.003490000000     0.0483606  
H462     H      0.606950000000     0.215510000000     0.036430000000     0.0408769  
H463     H      0.570580000000     0.260880000000     0.033360000000     0.0407088  
H464     H      0.572260000000     0.260170000000     0.000710000000     0.0483294  
H465     H      0.335860000000     0.323660000000     0.097240000000     0.0485948  
H466     H      0.358830000000     0.300270000000     0.094460000000     0.0411963  
H467     H      0.321950000000     0.260950000000     0.116400000000     0.0401943  
H468     H      0.299170000000     0.284360000000     0.119640000000     0.0481227  
H469     H      0.280450000000     0.301190000000     0.099290000000     0.0483953  
H470     H      0.256880000000     0.323850000000     0.097800000000     0.0407017  
H471     H      0.294250000000     0.364650000000     0.115910000000     0.0415218  
H472     H      0.317900000000     0.341780000000     0.117820000000     0.0484151  
H473     H      0.470500000000     0.230720000000     0.070680000000     0.0483207  
H474     H      0.437920000000     0.229500000000     0.069620000000     0.0405024  
H475     H      0.434990000000     0.263090000000     0.117160000000     0.0405903  
H476     H      0.467870000000     0.264000000000     0.118460000000     0.0485053  
H477     H      0.495290000000     0.274780000000     0.102740000000     0.0485408  
H478     H      0.528160000000     0.273320000000     0.103520000000     0.0415273  
H479     H      0.525840000000     0.216430000000     0.090560000000     0.0409532  
H480     H      0.493250000000     0.217790000000     0.090130000000     0.0483456  
H481     H      0.321430000000     0.341710000000     0.877490000000     0.0483427  
H482     H      0.298060000000     0.364980000000     0.877670000000     0.0406378  
H483     H      0.257660000000     0.323680000000     0.884610000000     0.0402639  
H484     H      0.280780000000     0.300510000000     0.883850000000     0.0483022  
H485     H      0.303780000000     0.290460000000     0.903830000000     0.0480581  
H486     H      0.326110000000     0.266680000000     0.905890000000     0.0408518  
H487     H      0.357170000000     0.292290000000     0.863870000000     0.0402228  
H488     H      0.334370000000     0.316060000000     0.861400000000     0.0482736  
H489     H      0.353420000000     0.135290000000     0.822490000000     0.0482907  
H490     H      0.356640000000     0.112830000000     0.798530000000     0.0415373  
H491     H      0.384040000000     0.152260000000     0.765560000000     0.0405266  
H492     H      0.381210000000     0.174510000000     0.789530000000     0.0482328  
H493     H      0.372460000000     0.150870000000     0.843980000000     0.0487087  
H494     H      0.373920000000     0.173330000000     0.867990000000     0.0411244  
H495     H      0.361830000000     0.215490000000     0.829590000000     0.0394022  
H496     H      0.359910000000     0.192990000000     0.805630000000     0.0481988  
H497     H      0.401570000000     0.224650000000     0.982920000000     0.0491727  
H498     H      0.404780000000     0.227260000000     0.950190000000     0.0385166  
H499     H      0.347670000000     0.219290000000     0.943950000000     0.0406812  
H500     H      0.344440000000     0.217170000000     0.976780000000     0.0490925  
H501     H      0.351220000000     0.242810000000     0.001970000000     0.0491414  
H502     H      0.350730000000     0.246360000000     0.034780000000     0.0385907  
H503     H      0.389320000000     0.203080000000     0.039960000000     0.0412485  
H504     H      0.390120000000     0.199890000000     0.007100000000     0.0491407  
H505     H      0.471510000000     0.216770000000     0.869930000000     0.048314   
H506     H      0.438960000000     0.214790000000     0.871530000000     0.0407723  
H507     H      0.436430000000     0.270020000000     0.890260000000     0.0408723  
H508     H      0.469260000000     0.271910000000     0.888960000000     0.0486148  
H509     H      0.496110000000     0.271310000000     0.868550000000     0.0485249  
H510     H      0.529040000000     0.271140000000     0.870030000000     0.0404808  
H511     H      0.527490000000     0.217960000000     0.894060000000     0.040986   
H512     H      0.494930000000     0.218230000000     0.892800000000     0.048615   
H513     H      0.334090000000     0.876910000000     0.330850000000     0.0483757  
H514     H      0.357200000000     0.878720000000     0.307560000000     0.0406698  
H515     H      0.316480000000     0.873660000000     0.266460000000     0.0400111  
H516     H      0.293480000000     0.871090000000     0.289610000000     0.0481106  
H517     H      0.278900000000     0.890270000000     0.310320000000     0.048141   
H518     H      0.255780000000     0.891580000000     0.333370000000     0.0403749  
H519     H      0.289370000000     0.860540000000     0.369320000000     0.0411276  
H520     H      0.312400000000     0.858580000000     0.345930000000     0.0483841  
H521     H      0.294590000000     0.093790000000     0.291830000000     0.0485309  
H522     H      0.316970000000     0.092240000000     0.268110000000     0.0409313  
H523     H      0.356110000000     0.116650000000     0.303510000000     0.041557   
H524     H      0.333430000000     0.118730000000     0.327290000000     0.048304   
H525     H      0.316930000000     0.099060000000     0.347470000000     0.0483733  
H526     H      0.293770000000     0.096340000000     0.370670000000     0.0396692  
H527     H      0.253300000000     0.110810000000     0.331560000000     0.0408631  
H528     H      0.276370000000     0.114160000000     0.308600000000     0.0484927  
H529     H      0.347560000000     0.160800000000     0.144830000000     0.0485268  
H530     H      0.351220000000     0.183000000000     0.120650000000     0.0405596  
H531     H      0.390880000000     0.211180000000     0.152510000000     0.0403557  
H532     H      0.387580000000     0.188910000000     0.176370000000     0.0483829  
H533     H      0.364110000000     0.136340000000     0.159120000000     0.0485394  
H534     H      0.364490000000     0.113740000000     0.183090000000     0.0420975  
H535     H      0.367620000000     0.156240000000     0.222890000000     0.0402828  
H536     H      0.366750000000     0.178840000000     0.199010000000     0.0482035  
H537     H      0.368750000000     0.003540000000     0.213780000000     0.048601   
H538     H      0.369630000000     0.036600000000     0.214020000000     0.040668   
H539     H      0.376590000000     0.035950000000     0.271800000000     0.0398371  
H540     H      0.374970000000     0.003160000000     0.271730000000     0.0483032  
H541     H      0.392990000000     0.978460000000     0.263230000000     0.0481656  
H542     H      0.393280000000     0.945700000000     0.264080000000     0.0408597  
H543     H      0.352740000000     0.944030000000     0.222490000000     0.0406134  
H544     H      0.351880000000     0.977120000000     0.222100000000     0.0482424  
H545     H      0.590540000000     0.138810000000     0.154990000000     0.0484013  
H546     H      0.588770000000     0.115480000000     0.178180000000     0.0406609  
H547     H      0.599430000000     0.155530000000     0.219120000000     0.0397772  
H548     H      0.602020000000     0.178730000000     0.196000000000     0.0480487  
H549     H      0.582830000000     0.195030000000     0.176860000000     0.048137   
H550     H      0.581370000000     0.218550000000     0.154090000000     0.0402917  
H551     H      0.606630000000     0.182910000000     0.115600000000     0.0411055  
H552     H      0.608830000000     0.159440000000     0.138680000000     0.0483576  
H553     H      0.668150000000     0.111440000000     0.283600000000     0.0480988  
H554     H      0.644660000000     0.109050000000     0.260920000000     0.0398347  
H555     H      0.605090000000     0.101630000000     0.302800000000     0.0407289  
H556     H      0.628690000000     0.103220000000     0.325570000000     0.0484396  
H557     H      0.650480000000     0.121220000000     0.340900000000     0.0484094  
H558     H      0.674050000000     0.118350000000     0.363680000000     0.0411401  
H559     H      0.707100000000     0.089450000000     0.325500000000     0.0408285  
H560     H      0.683490000000     0.091650000000     0.303080000000     0.0482265  
H561     H      0.491720000000     0.084800000000     0.222230000000     0.0484587  
H562     H      0.524200000000     0.083620000000     0.220710000000     0.0412152  
H563     H      0.527830000000     0.118810000000     0.267020000000     0.0408777  
H564     H      0.494990000000     0.120520000000     0.268230000000     0.0483793  
H565     H      0.468480000000     0.102550000000     0.274910000000     0.0485472  
H566     H      0.435620000000     0.101380000000     0.275220000000     0.0402046  
H567     H      0.435090000000     0.103130000000     0.217050000000     0.0398913  
H568     H      0.467640000000     0.104990000000     0.216690000000     0.0482787  
H569     H      0.630570000000     0.859080000000     0.322040000000     0.0483464  
H570     H      0.607240000000     0.862010000000     0.299020000000     0.0412637  
H571     H      0.644420000000     0.890750000000     0.264760000000     0.0407582  
H572     H      0.667410000000     0.888480000000     0.287820000000     0.048196   
H573     H      0.687150000000     0.868510000000     0.302680000000     0.0482036  
H574     H      0.710410000000     0.870760000000     0.325610000000     0.0398154  
H575     H      0.669880000000     0.878580000000     0.366480000000     0.0407937  
H576     H      0.646530000000     0.877110000000     0.343430000000     0.0484695  
H577     H      0.492470000000     0.878460000000     0.217180000000     0.0482444  
H578     H      0.525020000000     0.880280000000     0.216360000000     0.0401927  
H579     H      0.526630000000     0.881030000000     0.274530000000     0.0404392  
H580     H      0.493770000000     0.879880000000     0.275420000000     0.0484404  
H581     H      0.467150000000     0.861880000000     0.269480000000     0.0483911  
H582     H      0.434250000000     0.863170000000     0.269410000000     0.0406321  
H583     H      0.435890000000     0.899000000000     0.223480000000     0.0413664  
H584     H      0.468420000000     0.898240000000     0.223880000000     0.0482963  
H585     H      0.589680000000     0.977760000000     0.209470000000     0.0483428  
H586     H      0.588920000000     0.944690000000     0.210120000000     0.0407539  
H587     H      0.587250000000     0.945930000000     0.268280000000     0.0402657  
H588     H      0.588680000000     0.978730000000     0.267730000000     0.0481085  
H589     H      0.569520000000     0.003150000000     0.260410000000     0.0484454  
H590     H      0.569110000000     0.035930000000     0.261040000000     0.0410424  
H591     H      0.606420000000     0.037490000000     0.216500000000     0.0405838  
H592     H      0.607350000000     0.004380000000     0.216230000000     0.048548   
H593     H      0.773760000000     0.608110000000     0.175790000000     0.0482312  
H594     H      0.750510000000     0.605590000000     0.152880000000     0.03981    
H595     H      0.791110000000     0.598270000000     0.111980000000     0.0405423  
H596     H      0.814480000000     0.600150000000     0.135020000000     0.0484153  
H597     H      0.794110000000     0.588300000000     0.190530000000     0.0481484  
H598     H      0.817070000000     0.587070000000     0.213730000000     0.0409058  
H599     H      0.853130000000     0.617400000000     0.179610000000     0.0412654  
H600     H      0.829830000000     0.619170000000     0.156430000000     0.0483464  
H601     H      0.777200000000     0.603010000000     0.800980000000     0.0481548  
H602     H      0.754050000000     0.601580000000     0.824070000000     0.0401763  
H603     H      0.794850000000     0.597810000000     0.865250000000     0.0410911  
H604     H      0.818130000000     0.598550000000     0.842070000000     0.048341   
H605     H      0.833190000000     0.616120000000     0.819420000000     0.0484405  
H606     H      0.856380000000     0.613340000000     0.796240000000     0.0409561  
H607     H      0.820630000000     0.580460000000     0.764210000000     0.0402651  
H608     H      0.797790000000     0.582680000000     0.787470000000     0.048251   
H609     H      0.711030000000     0.579550000000     0.977080000000     0.0482933  
H610     H      0.711210000000     0.577700000000     0.944440000000     0.0409649  
H611     H      0.755930000000     0.614820000000     0.942370000000     0.0406121  
H612     H      0.755410000000     0.617180000000     0.975300000000     0.0483678  
H613     H      0.761500000000     0.600170000000     0.002510000000     0.0484862  
H614     H      0.760350000000     0.599810000000     0.035460000000     0.0415781  
H615     H      0.702410000000     0.598810000000     0.033370000000     0.0403441  
H616     H      0.703480000000     0.599830000000     0.000640000000     0.0480677  
H617     H      0.686530000000     0.305030000000     0.113710000000     0.0483975  
H618     H      0.709960000000     0.327890000000     0.111760000000     0.0406444  
H619     H      0.670660000000     0.367470000000     0.095210000000     0.0397518  
H620     H      0.647210000000     0.344430000000     0.096580000000     0.0484014  
H621     H      0.629670000000     0.324840000000     0.115840000000     0.0482829  
H622     H      0.606660000000     0.301360000000     0.113470000000     0.0411357  
H623     H      0.645950000000     0.264710000000     0.091140000000     0.0405634  
H624     H      0.668700000000     0.288160000000     0.092980000000     0.0483627  
H625     H      0.819440000000     0.385640000000     0.138590000000     0.0483458  
H626     H      0.796250000000     0.387030000000     0.115330000000     0.0396159  
H627     H      0.756420000000     0.370800000000     0.154420000000     0.0406351  
H628     H      0.779580000000     0.368820000000     0.177480000000     0.048468   
H629     H      0.797390000000     0.389450000000     0.194480000000     0.0483485  
H630     H      0.819780000000     0.390700000000     0.218240000000     0.0409647  
H631     H      0.859270000000     0.367950000000     0.182140000000     0.0413846  
H632     H      0.836600000000     0.366180000000     0.158340000000     0.0482554  
H633     H      0.723570000000     0.477230000000     0.127140000000     0.0486873  
H634     H      0.725750000000     0.444200000000     0.127530000000     0.0396991  
H635     H      0.709470000000     0.442520000000     0.071660000000     0.0404794  
H636     H      0.707410000000     0.475450000000     0.071290000000     0.0488247  
H637     H      0.732780000000     0.498600000000     0.073680000000     0.0489153  
H638     H      0.736250000000     0.531310000000     0.072180000000     0.039747   
H639     H      0.704740000000     0.537060000000     0.120710000000     0.0395037  
H640     H      0.701430000000     0.504060000000     0.122330000000     0.0488317  
H641     H      0.782720000000     0.366780000000     0.806560000000     0.0482506  
H642     H      0.759670000000     0.367860000000     0.829880000000     0.0398579  
H643     H      0.800730000000     0.374170000000     0.870520000000     0.0413987  
H644     H      0.823800000000     0.373440000000     0.847140000000     0.0485519  
H645     H      0.802850000000     0.389080000000     0.793460000000     0.0484457  
H646     H      0.825500000000     0.392120000000     0.770030000000     0.0407402  
H647     H      0.861550000000     0.358160000000     0.800600000000     0.0399032  
H648     H      0.838660000000     0.354860000000     0.824060000000     0.0483445  
H649     H      0.685380000000     0.303410000000     0.897370000000     0.0481987  
H650     H      0.709490000000     0.325330000000     0.900530000000     0.0402664  
H651     H      0.681480000000     0.361900000000     0.864910000000     0.0410064  
H652     H      0.657440000000     0.339660000000     0.861300000000     0.0483531  
H653     H      0.633120000000     0.325820000000     0.877960000000     0.0483425  
H654     H      0.609060000000     0.303370000000     0.877640000000     0.0414129  
H655     H      0.648490000000     0.260590000000     0.876360000000     0.0404139  
H656     H      0.672490000000     0.282930000000     0.876110000000     0.0481856  
H657     H      0.737200000000     0.407130000000     0.982980000000     0.0485609  
H658     H      0.733960000000     0.407750000000     0.950300000000     0.0399956  
H659     H      0.761450000000     0.356480000000     0.946500000000     0.040662   
H660     H      0.764620000000     0.355820000000     0.979400000000     0.0486245  
H661     H      0.742810000000     0.353130000000     0.005800000000     0.0487017  
H662     H      0.740380000000     0.353430000000     0.038670000000     0.0398886  
H663     H      0.759020000000     0.408730000000     0.039490000000     0.0404782  
H664     H      0.761410000000     0.408400000000     0.006680000000     0.0486001  
H665     H      0.760240000000     0.474410000000     0.871320000000     0.0481128  
H666     H      0.761740000000     0.441650000000     0.873640000000     0.0405813  
H667     H      0.705290000000     0.439850000000     0.886870000000     0.0413651  
H668     H      0.703860000000     0.472850000000     0.884990000000     0.0485231  
H669     H      0.706140000000     0.499400000000     0.865030000000     0.048405   
H670     H      0.705990000000     0.532520000000     0.866470000000     0.0410691  
H671     H      0.757150000000     0.531400000000     0.893890000000     0.0412507  
H672     H      0.757140000000     0.498620000000     0.892800000000     0.0484456  
H673     H      0.316930000000     0.637370000000     0.104300000000     0.0483687  
H674     H      0.293900000000     0.613920000000     0.102670000000     0.0409463  
H675     H      0.252680000000     0.654530000000     0.108670000000     0.0400365  
H676     H      0.275600000000     0.677860000000     0.111030000000     0.04818    
H677     H      0.295730000000     0.692570000000     0.091240000000     0.0482157  
H678     H      0.318310000000     0.716160000000     0.089600000000     0.0406046  
H679     H      0.354990000000     0.683000000000     0.120250000000     0.0410208  
H680     H      0.332040000000     0.659430000000     0.122500000000     0.0483669  
H681     H      0.352230000000     0.823170000000     0.142300000000     0.0482873  
H682     H      0.354990000000     0.799870000000     0.119100000000     0.0409659  
H683     H      0.378150000000     0.763510000000     0.158240000000     0.0404781  
H684     H      0.376210000000     0.786840000000     0.181120000000     0.0481825  
H685     H      0.357170000000     0.803510000000     0.199840000000     0.0480645  
H686     H      0.359990000000     0.826520000000     0.223120000000     0.0394007  
H687     H      0.372100000000     0.866520000000     0.182540000000     0.040574   
H688     H      0.370190000000     0.843350000000     0.159220000000     0.0484046  
H689     H      0.365920000000     0.781250000000     0.804940000000     0.0480259  
H690     H      0.368480000000     0.758580000000     0.828560000000     0.0396457  
H691     H      0.375420000000     0.800690000000     0.868220000000     0.040311   
H692     H      0.373800000000     0.823470000000     0.844510000000     0.0483293  
H693     H      0.356080000000     0.838830000000     0.823040000000     0.048303   
H694     H      0.358440000000     0.861760000000     0.799470000000     0.0410675  
H695     H      0.386060000000     0.823550000000     0.765320000000     0.0402347  
H696     H      0.384520000000     0.800970000000     0.789000000000     0.0481082  
H697     H      0.297770000000     0.695770000000     0.868570000000     0.0479653  
H698     H      0.321250000000     0.718440000000     0.871920000000     0.0397271  
H699     H      0.359470000000     0.676550000000     0.884950000000     0.0412841  
H700     H      0.335860000000     0.653880000000     0.882440000000     0.0484824  
H701     H      0.315990000000     0.637720000000     0.863480000000     0.0483422  
H702     H      0.292390000000     0.614890000000     0.865620000000     0.0412412  
H703     H      0.256560000000     0.654600000000     0.888540000000     0.0402238  
H704     H      0.280200000000     0.677160000000     0.887170000000     0.0481647  
H705     H      0.373040000000     0.714540000000     0.981750000000     0.048236   
H706     H      0.373760000000     0.713070000000     0.949040000000     0.0403308  
H707     H      0.372140000000     0.771360000000     0.946240000000     0.0412319  
H708     H      0.372020000000     0.772910000000     0.979210000000     0.0484566  
H709     H      0.393490000000     0.722750000000     0.005000000000     0.0484351  
H710     H      0.394880000000     0.722660000000     0.037680000000     0.0407659  
H711     H      0.357130000000     0.766940000000     0.039610000000     0.040931   
H712     H      0.355260000000     0.766690000000     0.006650000000     0.0484576  
H713     H      0.610070000000     0.842750000000     0.159880000000     0.048458   
H714     H      0.607320000000     0.865460000000     0.183670000000     0.041371   
H715     H      0.581510000000     0.826080000000     0.217950000000     0.0406679  
H716     H      0.583600000000     0.803680000000     0.194140000000     0.0482906  
H717     H      0.603330000000     0.784940000000     0.177800000000     0.0481291  
H718     H      0.600670000000     0.762170000000     0.154270000000     0.0399601  
H719     H      0.589890000000     0.803940000000     0.115100000000     0.0406757  
H720     H      0.591770000000     0.826780000000     0.138780000000     0.0484293  
H721     H      0.626960000000     0.655380000000     0.099150000000     0.048353   
H722     H      0.603920000000     0.678790000000     0.098090000000     0.0406808  
H723     H      0.644210000000     0.719500000000     0.108220000000     0.039897   
H724     H      0.667140000000     0.696140000000     0.110150000000     0.0481173  
H725     H      0.682930000000     0.676870000000     0.090650000000     0.0482253  
H726     H      0.706040000000     0.653790000000     0.088750000000     0.0400782  
H727     H      0.670540000000     0.615420000000     0.114310000000     0.0413961  
H728     H      0.647530000000     0.638780000000     0.116980000000     0.0484577  
H729     H      0.492040000000     0.762380000000     0.085710000000     0.0484364  
H730     H      0.524530000000     0.763110000000     0.083690000000     0.0411908  
H731     H      0.527910000000     0.716290000000     0.118320000000     0.0409285  
H732     H      0.495120000000     0.715860000000     0.120840000000     0.0484143  
H733     H      0.468190000000     0.709850000000     0.103400000000     0.0485637  
H734     H      0.435340000000     0.710100000000     0.102950000000     0.0412098  
H735     H      0.435810000000     0.768430000000     0.105350000000     0.0403754  
H736     H      0.468430000000     0.768210000000     0.106440000000     0.0482039  
H737     H      0.615570000000     0.820690000000     0.842790000000     0.0483602  
H738     H      0.612530000000     0.796740000000     0.865310000000     0.0415119  
H739     H      0.585740000000     0.763110000000     0.826050000000     0.0405993  
H740     H      0.588190000000     0.787080000000     0.803820000000     0.0482413  
H741     H      0.608450000000     0.803200000000     0.785180000000     0.0481995  
H742     H      0.606010000000     0.826930000000     0.762580000000     0.0396395  
H743     H      0.595510000000     0.866110000000     0.804410000000     0.0405164  
H744     H      0.597250000000     0.842230000000     0.827080000000     0.0485405  
H745     H      0.632640000000     0.657120000000     0.858470000000     0.0483064  
H746     H      0.610010000000     0.680890000000     0.861520000000     0.0411909  
H747     H      0.648330000000     0.714110000000     0.890010000000     0.0407075  
H748     H      0.670620000000     0.690310000000     0.887600000000     0.0482676  
H749     H      0.689810000000     0.674850000000     0.867590000000     0.048114   
H750     H      0.712420000000     0.651220000000     0.869930000000     0.0399574  
H751     H      0.670780000000     0.611410000000     0.877920000000     0.0405836  
H752     H      0.648070000000     0.635170000000     0.876350000000     0.0483554  
H753     H      0.498090000000     0.705400000000     0.881300000000     0.0484304  
H754     H      0.530960000000     0.706390000000     0.880750000000     0.0408138  
H755     H      0.529200000000     0.764600000000     0.884900000000     0.0405307  
H756     H      0.496590000000     0.763700000000     0.884910000000     0.0481756  
H757     H      0.473420000000     0.754840000000     0.905310000000     0.0484109  
H758     H      0.440870000000     0.755550000000     0.906780000000     0.0403585  
H759     H      0.437970000000     0.713450000000     0.866540000000     0.0403248  
H760     H      0.470820000000     0.713080000000     0.864650000000     0.0485226  
H761     H      0.591960000000     0.713920000000     0.978630000000     0.0482153  
H762     H      0.591600000000     0.712850000000     0.945900000000     0.0403453  
H763     H      0.593720000000     0.771150000000     0.943810000000     0.0409352  
H764     H      0.593480000000     0.772310000000     0.976790000000     0.0484996  
H765     H      0.610290000000     0.765540000000     0.004140000000     0.0485079  
H766     H      0.608100000000     0.765670000000     0.037100000000     0.0405997  
H767     H      0.569810000000     0.721890000000     0.034560000000     0.0410734  
H768     H      0.571530000000     0.722100000000     0.001910000000     0.0484355  
In1      In     0.588540000000     0.738640000000     0.886270000000     2.42065    
In2      In     0.584430000000     0.741570000000     0.094440000000     2.42353    
In3      In     0.380890000000     0.738490000000     0.889500000000     2.41502    
In4      In     0.377470000000     0.741250000000     0.097370000000     2.42132    
In5      In     0.738840000000     0.382820000000     0.890150000000     2.39892    
In6      In     0.733540000000     0.386760000000     0.095350000000     2.3934     
In7      In     0.732660000000     0.590770000000     0.884820000000     2.42468    
In8      In     0.728420000000     0.592650000000     0.092720000000     2.40986    
In9      In     0.584060000000     0.886490000000     0.241970000000     2.42229    
In10     In     0.584230000000     0.095580000000     0.240730000000     2.42233    
In11     In     0.377210000000     0.095090000000     0.244650000000     2.42399    
In12     In     0.376690000000     0.886050000000     0.245060000000     2.42127    
In13     In     0.380140000000     0.235090000000     0.889610000000     2.3941     
In14     In     0.378480000000     0.237270000000     0.094060000000     2.39769    
In15     In     0.586820000000     0.241820000000     0.885480000000     2.42194    
In16     In     0.585350000000     0.241740000000     0.093500000000     2.42319    
In17     In     0.086400000000     0.382220000000     0.240450000000     2.42054    
In18     In     0.879620000000     0.385910000000     0.242560000000     2.4227     
In19     In     0.876880000000     0.594790000000     0.237170000000     2.41963    
In20     In     0.084020000000     0.591300000000     0.239820000000     2.41354    
In21     In     0.233980000000     0.593520000000     0.887530000000     2.41658    
In22     In     0.231880000000     0.593820000000     0.095590000000     2.41998    
In23     In     0.234500000000     0.385120000000     0.097150000000     2.42565    
In24     In     0.236290000000     0.385230000000     0.888630000000     2.41366    
In25     In     0.879160000000     0.734860000000     0.592620000000     2.41757    
In26     In     0.086200000000     0.736590000000     0.595850000000     2.41548    
In27     In     0.879620000000     0.739350000000     0.384160000000     2.42449    
In28     In     0.086970000000     0.737090000000     0.387930000000     2.41806    
In29     In     0.087450000000     0.380610000000     0.746510000000     2.40417    
In30     In     0.883650000000     0.381770000000     0.742710000000     2.38662    
In31     In     0.879800000000     0.589340000000     0.739080000000     2.41757    
In32     In     0.086900000000     0.589130000000     0.742120000000     2.42213    
In33     In     0.230870000000     0.091200000000     0.389370000000     2.39878    
In34     In     0.232630000000     0.884080000000     0.393690000000     2.41062    
In35     In     0.232110000000     0.882150000000     0.598740000000     2.39091    
In36     In     0.231410000000     0.088930000000     0.595590000000     2.40481    
In37     In     0.085830000000     0.237650000000     0.387760000000     2.41948    
In38     In     0.878570000000     0.237540000000     0.387080000000     2.42354    
In39     In     0.879310000000     0.236290000000     0.595090000000     2.41756    
In40     In     0.086270000000     0.237120000000     0.596250000000     2.41536    
In41     In     0.732270000000     0.881080000000     0.593940000000     2.42209    
In42     In     0.733720000000     0.089860000000     0.593700000000     2.4156     
In43     In     0.731350000000     0.093430000000     0.385410000000     2.42469    
In44     In     0.732250000000     0.884600000000     0.385650000000     2.42226    
In45     In     0.381940000000     0.884000000000     0.741720000000     2.42205    
In46     In     0.379140000000     0.092260000000     0.739930000000     2.41235    
In47     In     0.589200000000     0.886900000000     0.742220000000     2.4198     
In48     In     0.586820000000     0.095490000000     0.738160000000     2.41739    
O1       O      0.587650000000     0.726520000000     0.914330000000    -0.501341   
O2       O      0.593740000000     0.754520000000     0.912320000000    -0.477145   
O3       O      0.597280000000     0.711270000000     0.874800000000    -0.480527   
O4       O      0.562460000000     0.722850000000     0.881170000000    -0.477515   
O5       O      0.599880000000     0.766050000000     0.877620000000    -0.480361   
O6       O      0.560630000000     0.750790000000     0.887560000000    -0.502055   
O7       O      0.617260000000     0.728400000000     0.886100000000    -0.501581   
O8       O      0.588830000000     0.748930000000     0.857440000000    -0.50171    
O9       O      0.589290000000     0.750930000000     0.123160000000    -0.500411   
O10      O      0.590930000000     0.770730000000     0.102420000000    -0.481926   
O11      O      0.592060000000     0.712210000000     0.100340000000    -0.481614   
O12      O      0.558810000000     0.728280000000     0.105470000000    -0.477843   
O13      O      0.594970000000     0.754750000000     0.068450000000    -0.478469   
O14      O      0.556410000000     0.752790000000     0.090690000000    -0.501358   
O15      O      0.613050000000     0.731580000000     0.097910000000    -0.499401   
O16      O      0.578960000000     0.731060000000     0.066350000000    -0.502527   
O17      O      0.378730000000     0.747850000000     0.860410000000    -0.498584   
O18      O      0.373890000000     0.767360000000     0.880890000000    -0.479941   
O19      O      0.372500000000     0.709410000000     0.883600000000    -0.48055    
O20      O      0.406780000000     0.724750000000     0.879460000000    -0.478999   
O21      O      0.373000000000     0.754320000000     0.914910000000    -0.474547   
O22      O      0.409110000000     0.747730000000     0.896390000000    -0.503847   
O23      O      0.352180000000     0.729660000000     0.883970000000    -0.49789    
O24      O      0.379800000000     0.726530000000     0.917610000000    -0.498392   
O25      O      0.384270000000     0.731230000000     0.069350000000    -0.501895   
O26      O      0.369360000000     0.755670000000     0.071170000000    -0.476084   
O27      O      0.368380000000     0.713520000000     0.107810000000    -0.480672   
O28      O      0.403510000000     0.725860000000     0.103300000000    -0.476119   
O29      O      0.367800000000     0.769290000000     0.106140000000    -0.480085   
O30      O      0.405010000000     0.754200000000     0.098510000000    -0.500102   
O31      O      0.348990000000     0.730550000000     0.095430000000    -0.503716   
O32      O      0.374780000000     0.750260000000     0.126470000000    -0.501737   
O33      O      0.733990000000     0.393190000000     0.918630000000    -0.495722   
O34      O      0.752500000000     0.371590000000     0.915530000000    -0.474998   
O35      O      0.711550000000     0.374320000000     0.878560000000    -0.479309   
O36      O      0.721810000000     0.408380000000     0.886360000000    -0.472474   
O37      O      0.767890000000     0.376860000000     0.882170000000    -0.480494   
O38      O      0.750150000000     0.410570000000     0.883770000000    -0.49513    
O39      O      0.725890000000     0.355260000000     0.894350000000    -0.498143   
O40      O      0.747900000000     0.375050000000     0.861840000000    -0.496939   
O41      O      0.743770000000     0.380860000000     0.123630000000    -0.487697   
O42      O      0.763280000000     0.384560000000     0.103100000000    -0.488315   
O43      O      0.703740000000     0.379340000000     0.097600000000    -0.488438   
O44      O      0.718890000000     0.411810000000     0.085070000000    -0.485243   
O45      O      0.748650000000     0.396260000000     0.070300000000    -0.48396    
O46      O      0.730170000000     0.413090000000     0.111260000000    -0.488549   
O47      O      0.723010000000     0.358560000000     0.101520000000    -0.487121   
O48      O      0.736680000000     0.370280000000     0.069400000000    -0.488088   
O49      O      0.761560000000     0.597670000000     0.876940000000    -0.480796   
O50      O      0.742420000000     0.593730000000     0.855990000000    -0.500435   
O51      O      0.703900000000     0.598840000000     0.877450000000    -0.481325   
O52      O      0.719260000000     0.564420000000     0.875450000000    -0.477159   
O53      O      0.745380000000     0.601500000000     0.910950000000    -0.47845    
O54      O      0.744440000000     0.562900000000     0.888890000000    -0.502376   
O55      O      0.723360000000     0.619670000000     0.880580000000    -0.50105    
O56      O      0.721340000000     0.586120000000     0.912730000000    -0.503291   
O57      O      0.743890000000     0.599400000000     0.066920000000    -0.474043   
O58      O      0.716100000000     0.592960000000     0.064770000000    -0.495673   
O59      O      0.700510000000     0.601990000000     0.101410000000    -0.479598   
O60      O      0.735080000000     0.563560000000     0.085410000000    -0.500789   
O61      O      0.757780000000     0.598140000000     0.100380000000    -0.481665   
O62      O      0.714120000000     0.567630000000     0.104300000000    -0.478486   
O63      O      0.719540000000     0.622030000000     0.093730000000    -0.497661   
O64      O      0.738540000000     0.596720000000     0.121400000000    -0.500813   
O65      O      0.582730000000     0.914540000000     0.254230000000    -0.502121   
O66      O      0.588920000000     0.912820000000     0.226320000000    -0.47779    
O67      O      0.593560000000     0.875230000000     0.269100000000    -0.480376   
O68      O      0.558250000000     0.880910000000     0.258010000000    -0.477746   
O69      O      0.594730000000     0.877950000000     0.214320000000    -0.479592   
O70      O      0.556050000000     0.886710000000     0.230040000000    -0.502475   
O71      O      0.613020000000     0.886510000000     0.251380000000    -0.502242   
O72      O      0.584980000000     0.857530000000     0.231980000000    -0.50151    
O73      O      0.588430000000     0.124360000000     0.230900000000    -0.5001     
O74      O      0.590360000000     0.103280000000     0.211490000000    -0.481617   
O75      O      0.592560000000     0.102370000000     0.269630000000    -0.481428   
O76      O      0.558750000000     0.106320000000     0.254530000000    -0.477072   
O77      O      0.594160000000     0.069270000000     0.227570000000    -0.477565   
O78      O      0.556080000000     0.091630000000     0.230040000000    -0.502061   
O79      O      0.613100000000     0.098930000000     0.249990000000    -0.500516   
O80      O      0.579010000000     0.067570000000     0.251790000000    -0.502168   
O81      O      0.380240000000     0.067160000000     0.256890000000    -0.502763   
O82      O      0.370620000000     0.068610000000     0.229970000000    -0.477933   
O83      O      0.368430000000     0.105950000000     0.272150000000    -0.480225   
O84      O      0.403390000000     0.101530000000     0.259780000000    -0.478387   
O85      O      0.368220000000     0.102830000000     0.216270000000    -0.480154   
O86      O      0.404790000000     0.095570000000     0.231820000000    -0.504352   
O87      O      0.348490000000     0.094960000000     0.254750000000    -0.502348   
O88      O      0.373210000000     0.123990000000     0.235050000000    -0.499438   
O89      O      0.372180000000     0.857340000000     0.235110000000    -0.500078   
O90      O      0.370090000000     0.878580000000     0.215890000000    -0.481862   
O91      O      0.368960000000     0.878880000000     0.274080000000    -0.481187   
O92      O      0.402690000000     0.875480000000     0.258090000000    -0.476369   
O93      O      0.366170000000     0.912330000000     0.232390000000    -0.477418   
O94      O      0.404480000000     0.890320000000     0.233610000000    -0.501827   
O95      O      0.348020000000     0.882910000000     0.254980000000    -0.500164   
O96      O      0.382250000000     0.914040000000     0.256010000000    -0.501745   
O97      O      0.391020000000     0.235580000000     0.918380000000    -0.490844   
O98      O      0.366470000000     0.221730000000     0.913810000000    -0.472651   
O99      O      0.371400000000     0.262620000000     0.878010000000    -0.475988   
O100     O      0.405330000000     0.252990000000     0.888280000000    -0.473847   
O101     O      0.375270000000     0.205940000000     0.880710000000    -0.483476   
O102     O      0.407850000000     0.225090000000     0.881870000000    -0.495925   
O103     O      0.353890000000     0.249140000000     0.896120000000    -0.496729   
O104     O      0.371160000000     0.226680000000     0.861390000000    -0.496118   
O105     O      0.384170000000     0.225580000000     0.121810000000    -0.499252   
O106     O      0.365590000000     0.211470000000     0.105310000000    -0.481812   
O107     O      0.370980000000     0.267200000000     0.095930000000    -0.48048    
O108     O      0.406550000000     0.232630000000     0.083190000000    -0.49505    
O109     O      0.378210000000     0.217560000000     0.070330000000    -0.473768   
O110     O      0.403800000000     0.252150000000     0.103950000000    -0.472401   
O111     O      0.351480000000     0.247740000000     0.103830000000    -0.496217   
O112     O      0.367860000000     0.243970000000     0.065990000000    -0.490788   
O113     O      0.588730000000     0.232920000000     0.856210000000    -0.500191   
O114     O      0.594940000000     0.213450000000     0.876390000000    -0.480735   
O115     O      0.596020000000     0.270460000000     0.878410000000    -0.480041   
O116     O      0.560740000000     0.256410000000     0.877220000000    -0.47784    
O117     O      0.593530000000     0.226230000000     0.911370000000    -0.475704   
O118     O      0.558850000000     0.230750000000     0.889910000000    -0.505083   
O119     O      0.615960000000     0.250220000000     0.882440000000    -0.500425   
O120     O      0.586470000000     0.254000000000     0.913470000000    -0.501769   
O121     O      0.580260000000     0.252260000000     0.065300000000    -0.501832   
O122     O      0.594090000000     0.227220000000     0.067590000000    -0.476469   
O123     O      0.594200000000     0.269760000000     0.103290000000    -0.481699   
O124     O      0.559430000000     0.257130000000     0.099910000000    -0.476297   
O125     O      0.594520000000     0.213610000000     0.102490000000    -0.48124    
O126     O      0.557490000000     0.229690000000     0.091490000000    -0.501291   
O127     O      0.614180000000     0.251730000000     0.093590000000    -0.503626   
O128     O      0.586060000000     0.232240000000     0.122600000000    -0.502563   
O129     O      0.115340000000     0.378950000000     0.231340000000    -0.502482   
O130     O      0.094970000000     0.374500000000     0.211780000000    -0.481147   
O131     O      0.096370000000     0.373710000000     0.268300000000    -0.478806   
O132     O      0.094560000000     0.408640000000     0.254660000000    -0.478593   
O133     O      0.060390000000     0.374680000000     0.225740000000    -0.475502   
O134     O      0.080990000000     0.410340000000     0.229560000000    -0.503925   
O135     O      0.087500000000     0.353190000000     0.250200000000    -0.499049   
O136     O      0.058840000000     0.382390000000     0.253350000000    -0.499953   
O137     O      0.907690000000     0.388690000000     0.253810000000    -0.501007   
O138     O      0.905020000000     0.375020000000     0.228740000000    -0.47689    
O139     O      0.873330000000     0.378240000000     0.271790000000    -0.483462   
O140     O      0.869890000000     0.412400000000     0.255270000000    -0.477484   
O141     O      0.871340000000     0.377360000000     0.214060000000    -0.479818   
O142     O      0.886820000000     0.413750000000     0.232200000000    -0.501003   
O143     O      0.873320000000     0.357380000000     0.252110000000    -0.502623   
O144     O      0.851100000000     0.386910000000     0.231920000000    -0.50096    
O145     O      0.848210000000     0.592530000000     0.227200000000    -0.501802   
O146     O      0.867010000000     0.605680000000     0.210020000000    -0.480506   
O147     O      0.868760000000     0.602980000000     0.265670000000    -0.479641   
O148     O      0.870830000000     0.568740000000     0.252790000000    -0.476236   
O149     O      0.902800000000     0.600170000000     0.221110000000    -0.478151   
O150     O      0.880630000000     0.566520000000     0.225970000000    -0.501172   
O151     O      0.871690000000     0.623770000000     0.246060000000    -0.498385   
O152     O      0.904700000000     0.596500000000     0.249420000000    -0.503485   
O153     O      0.055610000000     0.585670000000     0.249310000000    -0.499942   
O154     O      0.058560000000     0.599830000000     0.224560000000    -0.475386   
O155     O      0.094670000000     0.600130000000     0.267500000000    -0.480038   
O156     O      0.088860000000     0.565090000000     0.255570000000    -0.476128   
O157     O      0.093090000000     0.601110000000     0.212000000000    -0.479057   
O158     O      0.084770000000     0.563350000000     0.227250000000    -0.499043   
O159     O      0.082560000000     0.619960000000     0.250770000000    -0.502358   
O160     O      0.113130000000     0.593210000000     0.230830000000    -0.499836   
O161     O      0.246460000000     0.594590000000     0.915380000000    -0.499524   
O162     O      0.218310000000     0.599160000000     0.913530000000    -0.476292   
O163     O      0.261860000000     0.602290000000     0.878040000000    -0.480249   
O164     O      0.248890000000     0.567680000000     0.879230000000    -0.475892   
O165     O      0.206380000000     0.603870000000     0.878370000000    -0.480366   
O166     O      0.224450000000     0.565070000000     0.893790000000    -0.500127   
O167     O      0.243050000000     0.622760000000     0.885010000000    -0.500031   
O168     O      0.223400000000     0.591670000000     0.858890000000    -0.502969   
O169     O      0.221840000000     0.598060000000     0.124210000000    -0.499578   
O170     O      0.202640000000     0.599760000000     0.103060000000    -0.48174    
O171     O      0.260720000000     0.601840000000     0.102560000000    -0.481117   
O172     O      0.245180000000     0.568010000000     0.106520000000    -0.477189   
O173     O      0.218910000000     0.604280000000     0.069470000000    -0.47735    
O174     O      0.221520000000     0.565490000000     0.090680000000    -0.501254   
O175     O      0.241380000000     0.622760000000     0.099280000000    -0.499733   
O176     O      0.243190000000     0.589290000000     0.067650000000    -0.501428   
O177     O      0.246760000000     0.387230000000     0.069280000000    -0.503691   
O178     O      0.219270000000     0.379710000000     0.070780000000    -0.478424   
O179     O      0.262260000000     0.376530000000     0.107250000000    -0.480935   
O180     O      0.249370000000     0.411530000000     0.103550000000    -0.477583   
O181     O      0.207380000000     0.373440000000     0.105760000000    -0.48045    
O182     O      0.221790000000     0.412910000000     0.096240000000    -0.502347   
O183     O      0.244350000000     0.356110000000     0.098070000000    -0.502414   
O184     O      0.224450000000     0.384420000000     0.125990000000    -0.502139   
O185     O      0.227030000000     0.378540000000     0.860100000000    -0.496456   
O186     O      0.207380000000     0.378730000000     0.880950000000    -0.480654   
O187     O      0.264650000000     0.376660000000     0.880080000000    -0.479409   
O188     O      0.251780000000     0.411030000000     0.881210000000    -0.474766   
O189     O      0.222880000000     0.375590000000     0.914820000000    -0.477935   
O190     O      0.223750000000     0.413030000000     0.886280000000    -0.498491   
O191     O      0.246460000000     0.356330000000     0.888840000000    -0.500856   
O192     O      0.245230000000     0.393250000000     0.916770000000    -0.502685   
O193     O      0.850170000000     0.744360000000     0.593700000000    -0.499468   
O194     O      0.870400000000     0.763410000000     0.600690000000    -0.479759   
O195     O      0.872890000000     0.705730000000     0.600640000000    -0.480529   
O196     O      0.869830000000     0.721560000000     0.566160000000    -0.478769   
O197     O      0.904550000000     0.750480000000     0.600640000000    -0.474789   
O198     O      0.886620000000     0.744680000000     0.564680000000    -0.504608   
O199     O      0.873370000000     0.725730000000     0.621280000000    -0.498906   
O200     O      0.906990000000     0.722600000000     0.594060000000    -0.499005   
O201     O      0.058270000000     0.726690000000     0.588650000000    -0.499997   
O202     O      0.060070000000     0.750660000000     0.604330000000    -0.475845   
O203     O      0.097240000000     0.709080000000     0.604970000000    -0.479853   
O204     O      0.092280000000     0.721000000000     0.569820000000    -0.475792   
O205     O      0.093960000000     0.765080000000     0.604950000000    -0.479765   
O206     O      0.088010000000     0.749380000000     0.568140000000    -0.49976    
O207     O      0.083920000000     0.725490000000     0.624280000000    -0.502829   
O208     O      0.114900000000     0.746220000000     0.599880000000    -0.500553   
O209     O      0.907270000000     0.726610000000     0.384140000000    -0.502869   
O210     O      0.905850000000     0.754860000000     0.379080000000    -0.478539   
O211     O      0.867900000000     0.712410000000     0.374620000000    -0.480768   
O212     O      0.874570000000     0.722930000000     0.409940000000    -0.476992   
O213     O      0.870580000000     0.767130000000     0.373900000000    -0.480101   
O214     O      0.881630000000     0.750670000000     0.412460000000    -0.502247   
O215     O      0.878610000000     0.730340000000     0.354940000000    -0.501343   
O216     O      0.850920000000     0.749440000000     0.384950000000    -0.502894   
O217     O      0.115860000000     0.746410000000     0.384410000000    -0.499213   
O218     O      0.095320000000     0.766210000000     0.381750000000    -0.481142   
O219     O      0.092960000000     0.707850000000     0.379730000000    -0.481363   
O220     O      0.097100000000     0.723320000000     0.413790000000    -0.476878   
O221     O      0.061430000000     0.750990000000     0.377400000000    -0.476506   
O222     O      0.082500000000     0.747910000000     0.416090000000    -0.501159   
O223     O      0.090530000000     0.727580000000     0.359030000000    -0.500211   
O224     O      0.058740000000     0.726740000000     0.392540000000    -0.50079    
O225     O      0.058610000000     0.389970000000     0.742410000000    -0.494759   
O226     O      0.062980000000     0.368580000000     0.760980000000    -0.473755   
O227     O      0.096970000000     0.372510000000     0.718140000000    -0.478926   
O228     O      0.090690000000     0.406590000000     0.730060000000    -0.47366    
O229     O      0.097260000000     0.372240000000     0.774510000000    -0.481119   
O230     O      0.091020000000     0.408480000000     0.758700000000    -0.495506   
O231     O      0.084370000000     0.352600000000     0.734350000000    -0.501159   
O232     O      0.116830000000     0.376920000000     0.754200000000    -0.498723   
O233     O      0.856380000000     0.387180000000     0.755500000000    -0.493185   
O234     O      0.874190000000     0.370050000000     0.769790000000    -0.483464   
O235     O      0.882970000000     0.374000000000     0.712830000000    -0.487149   
O236     O      0.870800000000     0.407090000000     0.730060000000    -0.472471   
O237     O      0.907520000000     0.385280000000     0.761680000000    -0.471953   
O238     O      0.896920000000     0.409410000000     0.741100000000    -0.488572   
O239     O      0.873140000000     0.354980000000     0.731860000000    -0.496724   
O240     O      0.910690000000     0.367620000000     0.739280000000    -0.486958   
O241     O      0.907590000000     0.591390000000     0.726790000000    -0.500298   
O242     O      0.905520000000     0.594830000000     0.755170000000    -0.476648   
O243     O      0.869320000000     0.598010000000     0.711410000000    -0.479588   
O244     O      0.873670000000     0.563420000000     0.723230000000    -0.476345   
O245     O      0.870190000000     0.600220000000     0.766380000000    -0.481486   
O246     O      0.885770000000     0.561000000000     0.749060000000    -0.500719   
O247     O      0.877360000000     0.618510000000     0.729830000000    -0.499519   
O248     O      0.851320000000     0.586600000000     0.749750000000    -0.502739   
O249     O      0.115640000000     0.593190000000     0.751490000000    -0.500591   
O250     O      0.094940000000     0.596420000000     0.770990000000    -0.480807   
O251     O      0.093820000000     0.597020000000     0.713080000000    -0.480357   
O252     O      0.096800000000     0.562870000000     0.728870000000    -0.477752   
O253     O      0.060910000000     0.599280000000     0.755400000000    -0.477412   
O254     O      0.083110000000     0.561190000000     0.753960000000    -0.50188    
O255     O      0.090110000000     0.618010000000     0.732340000000    -0.500523   
O256     O      0.059010000000     0.584370000000     0.730980000000    -0.502537   
O257     O      0.220430000000     0.118990000000     0.382130000000    -0.487591   
O258     O      0.201250000000     0.097730000000     0.383700000000    -0.482347   
O259     O      0.260380000000     0.097110000000     0.382730000000    -0.483592   
O260     O      0.246540000000     0.084530000000     0.415240000000    -0.486195   
O261     O      0.215120000000     0.065420000000     0.396500000000    -0.485392   
O262     O      0.228130000000     0.106310000000     0.415970000000    -0.496362   
O263     O      0.241240000000     0.097830000000     0.361460000000    -0.487778   
O264     O      0.233950000000     0.064080000000     0.375160000000    -0.495965   
O265     O      0.242900000000     0.912990000000     0.394460000000    -0.499477   
O266     O      0.214910000000     0.909250000000     0.390470000000    -0.477395   
O267     O      0.259680000000     0.873370000000     0.383560000000    -0.479493   
O268     O      0.250390000000     0.879500000000     0.418540000000    -0.477895   
O269     O      0.205560000000     0.874680000000     0.382440000000    -0.479506   
O270     O      0.222360000000     0.883020000000     0.422510000000    -0.499483   
O271     O      0.242080000000     0.885540000000     0.364580000000    -0.499015   
O272     O      0.223150000000     0.854830000000     0.393230000000    -0.498328   
O273     O      0.221510000000     0.854540000000     0.606940000000    -0.48619    
O274     O      0.202300000000     0.875230000000     0.602090000000    -0.488516   
O275     O      0.262060000000     0.879100000000     0.605470000000    -0.483388   
O276     O      0.249050000000     0.887170000000     0.573440000000    -0.475922   
O277     O      0.227960000000     0.908820000000     0.614070000000    -0.489634   
O278     O      0.230240000000     0.865640000000     0.572890000000    -0.489789   
O279     O      0.243200000000     0.876860000000     0.626800000000    -0.486879   
O280     O      0.220570000000     0.908010000000     0.586560000000    -0.492287   
O281     O      0.238570000000     0.059930000000     0.588370000000    -0.49654    
O282     O      0.216000000000     0.063910000000     0.605400000000    -0.475207   
O283     O      0.258750000000     0.100000000000     0.604530000000    -0.481239   
O284     O      0.248650000000     0.092530000000     0.570350000000    -0.474465   
O285     O      0.203300000000     0.098170000000     0.604120000000    -0.479136   
O286     O      0.220290000000     0.091000000000     0.567150000000    -0.495463   
O287     O      0.242560000000     0.087020000000     0.624140000000    -0.501097   
O288     O      0.222420000000     0.118300000000     0.597150000000    -0.498196   
O289     O      0.058130000000     0.250400000000     0.386720000000    -0.502345   
O290     O      0.059780000000     0.222230000000     0.381580000000    -0.47822    
O291     O      0.093650000000     0.266370000000     0.379610000000    -0.480203   
O292     O      0.093370000000     0.252450000000     0.413910000000    -0.477502   
O293     O      0.094180000000     0.209970000000     0.376980000000    -0.479381   
O294     O      0.081900000000     0.226230000000     0.415850000000    -0.502555   
O295     O      0.091690000000     0.246490000000     0.358990000000    -0.498738   
O296     O      0.114280000000     0.226750000000     0.388670000000    -0.500838   
O297     O      0.849950000000     0.228590000000     0.381240000000    -0.502699   
O298     O      0.870370000000     0.208590000000     0.379900000000    -0.482963   
O299     O      0.869260000000     0.265950000000     0.379120000000    -0.479309   
O300     O      0.869230000000     0.251250000000     0.413240000000    -0.477978   
O301     O      0.904550000000     0.224210000000     0.377240000000    -0.477435   
O302     O      0.881620000000     0.225420000000     0.414920000000    -0.501967   
O303     O      0.879390000000     0.248610000000     0.358610000000    -0.500857   
O304     O      0.906460000000     0.248270000000     0.392850000000    -0.501485   
O305     O      0.907510000000     0.245950000000     0.588700000000    -0.501803   
O306     O      0.905120000000     0.221930000000     0.604190000000    -0.477297   
O307     O      0.870090000000     0.264620000000     0.603570000000    -0.481057   
O308     O      0.873150000000     0.251720000000     0.569040000000    -0.475704   
O309     O      0.870700000000     0.208100000000     0.604260000000    -0.480344   
O310     O      0.878510000000     0.223510000000     0.567310000000    -0.498529   
O311     O      0.879270000000     0.246680000000     0.623910000000    -0.502715   
O312     O      0.850300000000     0.227090000000     0.597560000000    -0.4999     
O313     O      0.115110000000     0.227270000000     0.598730000000    -0.498681   
O314     O      0.094340000000     0.208010000000     0.602930000000    -0.480614   
O315     O      0.092630000000     0.266150000000     0.604590000000    -0.481017   
O316     O      0.096820000000     0.250320000000     0.570180000000    -0.47885    
O317     O      0.060760000000     0.221620000000     0.604130000000    -0.472937   
O318     O      0.078440000000     0.228520000000     0.568020000000    -0.503864   
O319     O      0.090900000000     0.246140000000     0.625140000000    -0.499759   
O320     O      0.058440000000     0.249420000000     0.597130000000    -0.497299   
O321     O      0.720140000000     0.909160000000     0.594620000000    -0.503494   
O322     O      0.748070000000     0.907120000000     0.599990000000    -0.477907   
O323     O      0.703650000000     0.873560000000     0.602140000000    -0.480112   
O324     O      0.717450000000     0.874430000000     0.567630000000    -0.476503   
O325     O      0.759170000000     0.871260000000     0.605150000000    -0.480153   
O326     O      0.744120000000     0.884600000000     0.566050000000    -0.502142   
O327     O      0.723320000000     0.876030000000     0.622790000000    -0.499858   
O328     O      0.742160000000     0.852170000000     0.592120000000    -0.501386   
O329     O      0.743310000000     0.118450000000     0.599730000000    -0.501134   
O330     O      0.762910000000     0.097610000000     0.599680000000    -0.48208    
O331     O      0.705940000000     0.100280000000     0.601820000000    -0.478439   
O332     O      0.719400000000     0.099230000000     0.567900000000    -0.47628    
O333     O      0.746720000000     0.063670000000     0.603860000000    -0.476862   
O334     O      0.744930000000     0.086640000000     0.565490000000    -0.500251   
O335     O      0.722760000000     0.089290000000     0.622250000000    -0.498912   
O336     O      0.722860000000     0.061760000000     0.588220000000    -0.500363   
O337     O      0.719100000000     0.065420000000     0.386460000000    -0.502681   
O338     O      0.746820000000     0.067180000000     0.379840000000    -0.477721   
O339     O      0.704160000000     0.104940000000     0.376640000000    -0.480331   
O340     O      0.715980000000     0.098260000000     0.411840000000    -0.478439   
O341     O      0.758610000000     0.102150000000     0.374190000000    -0.48021    
O342     O      0.743970000000     0.092840000000     0.413190000000    -0.502911   
O343     O      0.721270000000     0.093690000000     0.356600000000    -0.502515   
O344     O      0.741210000000     0.122430000000     0.384620000000    -0.501765   
O345     O      0.742320000000     0.855930000000     0.381500000000    -0.500641   
O346     O      0.761360000000     0.877220000000     0.379010000000    -0.48195    
O347     O      0.703200000000     0.877940000000     0.378110000000    -0.481686   
O348     O      0.719550000000     0.873340000000     0.411560000000    -0.47764    
O349     O      0.745150000000     0.910760000000     0.375090000000    -0.47734    
O350     O      0.742830000000     0.889820000000     0.413740000000    -0.501863   
O351     O      0.722290000000     0.880770000000     0.356960000000    -0.499962   
O352     O      0.721140000000     0.912630000000     0.390480000000    -0.50141    
O353     O      0.387120000000     0.912330000000     0.731340000000    -0.502275   
O354     O      0.373850000000     0.909960000000     0.756590000000    -0.477128   
O355     O      0.372910000000     0.873780000000     0.713930000000    -0.480741   
O356     O      0.408040000000     0.878570000000     0.726270000000    -0.476756   
O357     O      0.372120000000     0.875050000000     0.769530000000    -0.47989    
O358     O      0.409580000000     0.883770000000     0.754450000000    -0.500579   
O359     O      0.353190000000     0.884490000000     0.731650000000    -0.504397   
O360     O      0.380630000000     0.854790000000     0.751040000000    -0.500666   
O361     O      0.381160000000     0.120730000000     0.751310000000    -0.499834   
O362     O      0.368160000000     0.100910000000     0.767430000000    -0.480284   
O363     O      0.370880000000     0.098350000000     0.710880000000    -0.480964   
O364     O      0.404950000000     0.102570000000     0.726340000000    -0.476229   
O365     O      0.374180000000     0.066520000000     0.756410000000    -0.473295   
O366     O      0.407320000000     0.084000000000     0.748040000000    -0.500869   
O367     O      0.350540000000     0.098240000000     0.730990000000    -0.499387   
O368     O      0.376140000000     0.064260000000     0.727900000000    -0.497482   
O369     O      0.594860000000     0.858180000000     0.751500000000    -0.502437   
O370     O      0.595930000000     0.878870000000     0.771310000000    -0.481886   
O371     O      0.597240000000     0.876490000000     0.714340000000    -0.478912   
O372     O      0.563350000000     0.877670000000     0.728090000000    -0.476854   
O373     O      0.598910000000     0.913270000000     0.755250000000    -0.4775     
O374     O      0.561270000000     0.889810000000     0.753970000000    -0.500986   
O375     O      0.617610000000     0.887570000000     0.731160000000    -0.499645   
O376     O      0.583620000000     0.914840000000     0.731070000000    -0.501232   
O377     O      0.592990000000     0.069800000000     0.754510000000    -0.476639   
O378     O      0.588740000000     0.067310000000     0.726320000000    -0.502288   
O379     O      0.594650000000     0.102620000000     0.709220000000    -0.479134   
O380     O      0.560530000000     0.101890000000     0.723320000000    -0.476964   
O381     O      0.598310000000     0.105690000000     0.764890000000    -0.48015    
O382     O      0.559040000000     0.090730000000     0.749680000000    -0.501711   
O383     O      0.615370000000     0.101170000000     0.728900000000    -0.498683   
O384     O      0.584330000000     0.124380000000     0.748200000000    -0.500233   


