data_structure

_audit_creation_method RASPA-1.0
_audit_creation_date 2023-5-22
_audit_author_name 'Poobodin Mano'

_cell_length_a    44.2567
_cell_length_b    45.2242
_cell_length_c    44.409
_cell_angle_alpha 89.9982
_cell_angle_beta  89.9989
_cell_angle_gamma 119.87
_cell_volume      77076

_symmetry_cell_setting          triclinic
_symmetry_space_group_name_Hall 'P 1'
_symmetry_space_group_name_H-M  'P 1'
_symmetry_Int_Tables_number     1

_symmetry_equiv_pos_as_xyz 'x,y,z'

loop_
_atom_site_label
_atom_site_type_symbol
_atom_site_fract_x
_atom_site_fract_y
_atom_site_fract_z
_atom_site_charge
C1       C      0.391100000000     0.580740000000     0.267000000000     0.354622   
C2       C      0.407970000000     0.513580000000     0.187410000000     0.354192   
C3       C      0.383340000000     0.485410000000     0.274560000000     0.353612   
C4       C      0.321260000000     0.519700000000     0.202710000000     0.355778   
C5       C      0.116870000000     0.579570000000     0.021550000000     0.354563   
C6       C      0.032710000000     0.513290000000     0.101950000000     0.353817   
C7       C      0.027920000000     0.484130000000     0.514920000000     0.353941   
C8       C      0.125510000000     0.519230000000     0.086210000000     0.355572   
C9       C      0.318550000000     0.778500000000     0.420540000000     0.354766   
C10      C      0.388730000000     0.869220000000     0.347060000000     0.355492   
C11      C      0.408160000000     0.869410000000     0.438610000000     0.355653   
C12      C      0.388750000000     0.779480000000     0.365050000000     0.354991   
C13      C      0.755640000000     0.341230000000     0.286510000000     0.358489   
C14      C      0.854880000000     0.401050000000     0.349930000000     0.354149   
C15      C      0.847900000000     0.428890000000     0.261670000000     0.356289   
C16      C      0.773600000000     0.425150000000     0.341460000000     0.35593    
C17      C      0.509220000000     0.340690000000     0.502230000000     0.358373   
C18      C      0.470800000000     0.400920000000     0.439400000000     0.354219   
C19      C      0.506210000000     0.428400000000     0.027720000000     0.356493   
C20      C      0.576610000000     0.425080000000     0.447780000000     0.355896   
C21      C      0.563570000000     0.142430000000     0.175080000000     0.35236    
C22      C      0.497540000000     0.050940000000     0.098300000000     0.352245   
C23      C      0.477550000000     0.050680000000     0.187300000000     0.352164   
C24      C      0.501670000000     0.141470000000     0.110490000000     0.352094   
C25      C      0.533180000000     0.281770000000     0.042610000000    -0.0649138  
C26      C      0.500770000000     0.251810000000     0.045580000000     0.0232262  
C27      C      0.470880000000     0.251120000000     0.033940000000    -0.0644449  
C28      C      0.473500000000     0.279820000000     0.019380000000     0.0219859  
C29      C      0.506000000000     0.309740000000     0.016530000000    -0.0985321  
C30      C      0.535740000000     0.310380000000     0.028320000000     0.0220596  
C31      C      0.498730000000     0.221610000000     0.060750000000     0.0219644  
C32      C      0.523870000000     0.212160000000     0.054470000000    -0.0638156  
C33      C      0.524120000000     0.185650000000     0.070240000000     0.0204029  
C34      C      0.499240000000     0.167860000000     0.092720000000    -0.0937282  
C35      C      0.473310000000     0.176450000000     0.098430000000     0.0193772  
C36      C      0.473020000000     0.203080000000     0.082500000000    -0.0628253  
C37      C      0.671720000000     0.455490000000     0.432110000000    -0.0644052  
C38      C      0.670500000000     0.445880000000     0.401800000000     0.0226163  
C39      C      0.638840000000     0.432790000000     0.386070000000    -0.0642048  
C40      C      0.608660000000     0.427570000000     0.400750000000     0.0213373  
C41      C      0.609510000000     0.435540000000     0.431430000000    -0.0984107  
C42      C      0.641520000000     0.450520000000     0.446750000000     0.021508   
C43      C      0.700830000000     0.445850000000     0.387460000000     0.0227037  
C44      C      0.709530000000     0.455650000000     0.357200000000    -0.0644089  
C45      C      0.734670000000     0.450690000000     0.342550000000     0.0214455  
C46      C      0.751300000000     0.435530000000     0.357830000000    -0.0985126  
C47      C      0.743880000000     0.427360000000     0.388450000000     0.0214837  
C48      C      0.719010000000     0.432570000000     0.403140000000    -0.0643442  
C49      C      0.672720000000     0.282700000000     0.244650000000    -0.0648506  
C50      C      0.674820000000     0.252850000000     0.241620000000     0.0231102  
C51      C      0.703760000000     0.252080000000     0.253800000000    -0.0644219  
C52      C      0.729920000000     0.280600000000     0.268880000000     0.0219094  
C53      C      0.727700000000     0.310420000000     0.271770000000    -0.0983638  
C54      C      0.698840000000     0.311130000000     0.259490000000     0.0219093  
C55      C      0.646600000000     0.222820000000     0.225860000000     0.0220889  
C56      C      0.611660000000     0.213160000000     0.231450000000    -0.0639297  
C57      C      0.584900000000     0.186650000000     0.215270000000     0.0204707  
C58      C      0.592370000000     0.169090000000     0.193070000000    -0.0938746  
C59      C      0.627230000000     0.177980000000     0.187980000000     0.0195401  
C60      C      0.654150000000     0.204600000000     0.204320000000    -0.0630299  
C61      C      0.469240000000     0.994550000000     0.252930000000    -0.064258   
C62      C      0.432960000000     0.974020000000     0.256150000000     0.0226172  
C63      C      0.411080000000     0.980890000000     0.237990000000    -0.0630781  
C64      C      0.425340000000     0.006760000000     0.216140000000     0.0201759  
C65      C      0.461610000000     0.025830000000     0.212040000000    -0.095097   
C66      C      0.483330000000     0.019850000000     0.231010000000     0.0225269  
C67      C      0.418760000000     0.945000000000     0.277750000000     0.023185   
C68      C      0.435580000000     0.925770000000     0.281020000000    -0.0648566  
C69      C      0.425070000000     0.900710000000     0.303090000000     0.0232748  
C70      C      0.397010000000     0.893680000000     0.322150000000    -0.0981962  
C71      C      0.378760000000     0.911410000000     0.317980000000     0.0211921  
C72      C      0.389660000000     0.937030000000     0.295990000000    -0.0638218  
C73      C      0.416380000000     0.924370000000     0.505180000000    -0.0648865  
C74      C      0.452660000000     0.945260000000     0.508100000000     0.0232     
C75      C      0.474570000000     0.938920000000     0.489480000000    -0.0638872  
C76      C      0.460310000000     0.913270000000     0.467450000000     0.0212779  
C77      C      0.424020000000     0.893890000000     0.463620000000    -0.0982958  
C78      C      0.402280000000     0.899290000000     0.483070000000     0.0234721  
C79      C      0.466850000000     0.974300000000     0.029680000000     0.0225193  
C80      C      0.449700000000     0.993180000000     0.033230000000    -0.0641058  
C81      C      0.460420000000     0.018470000000     0.055070000000     0.0223802  
C82      C      0.489000000000     0.026100000000     0.073670000000    -0.0950636  
C83      C      0.507530000000     0.008670000000     0.069260000000     0.0201212  
C84      C      0.496440000000     0.982820000000     0.047470000000    -0.063004   
C85      C      0.943460000000     0.442540000000     0.471700000000    -0.064584   
C86      C      0.952380000000     0.430470000000     0.446020000000     0.0230582  
C87      C      0.985600000000     0.433650000000     0.444240000000    -0.0650629  
C88      C      0.009830000000     0.449550000000     0.467470000000     0.0221623  
C89      C      0.001410000000     0.463240000000     0.492330000000    -0.0967134  
C90      C      0.967850000000     0.459060000000     0.494490000000     0.0223948  
C91      C      0.928280000000     0.418240000000     0.420020000000     0.0228047  
C92      C      0.892880000000     0.394040000000     0.423970000000    -0.0647406  
C93      C      0.869120000000     0.386800000000     0.400480000000     0.0218598  
C94      C      0.880330000000     0.404210000000     0.372950000000    -0.0975068  
C95      C      0.915970000000     0.427240000000     0.368600000000     0.0220773  
C96      C      0.939780000000     0.433960000000     0.391840000000    -0.0643185  
C97      C      0.921900000000     0.492900000000     0.212810000000    -0.0641416  
C98      C      0.924270000000     0.471240000000     0.191380000000     0.0231253  
C99      C      0.899160000000     0.436400000000     0.191620000000    -0.0648088  
C100     C      0.873540000000     0.423080000000     0.213810000000     0.0220178  
C101     C      0.872220000000     0.444300000000     0.236190000000    -0.0968825  
C102     C      0.896020000000     0.479500000000     0.235080000000     0.0217498  
C103     C      0.953770000000     0.484030000000     0.169840000000     0.0219734  
C104     C      0.965260000000     0.514660000000     0.153880000000    -0.0629487  
C105     C      0.991740000000     0.524990000000     0.132260000000     0.019313   
C106     C      0.007100000000     0.504850000000     0.126420000000    -0.0934588  
C107     C      0.996450000000     0.474980000000     0.143230000000     0.0196446  
C108     C      0.970210000000     0.464760000000     0.164690000000    -0.063513   
C109     C      0.190410000000     0.634000000000     0.468520000000    -0.0649705  
C110     C      0.196410000000     0.666870000000     0.474850000000     0.0226262  
C111     C      0.174180000000     0.670840000000     0.494970000000    -0.0639454  
C112     C      0.147420000000     0.642370000000     0.509690000000     0.0205825  
C113     C      0.142350000000     0.609580000000     0.004140000000    -0.0967218  
C114     C      0.163590000000     0.605680000000     0.482850000000     0.0212839  
C115     C      0.227470000000     0.696730000000     0.462000000000     0.022532   
C116     C      0.260240000000     0.699340000000     0.465320000000    -0.064603   
C117     C      0.289730000000     0.726320000000     0.452290000000     0.0212927  
C118     C      0.287090000000     0.751120000000     0.435290000000    -0.0950682  
C119     C      0.254370000000     0.748850000000     0.432220000000     0.0205779  
C120     C      0.224770000000     0.721970000000     0.445750000000    -0.0638539  
C121     C      0.476610000000     0.514470000000     0.135520000000    -0.0635155  
C122     C      0.456850000000     0.483700000000     0.119760000000     0.0225469  
C123     C      0.420830000000     0.464430000000     0.125080000000    -0.0642823  
C124     C      0.405090000000     0.474830000000     0.146490000000     0.0214013  
C125     C      0.424890000000     0.504870000000     0.163060000000    -0.095157   
C126     C      0.460730000000     0.524970000000     0.157070000000     0.0204408  
C127     C      0.473230000000     0.470840000000     0.098160000000     0.0229515  
C128     C      0.497590000000     0.492460000000     0.076680000000    -0.0640129  
C129     C      0.509750000000     0.479020000000     0.054380000000     0.0218151  
C130     C      0.497660000000     0.443810000000     0.053250000000    -0.09684    
C131     C      0.474770000000     0.422610000000     0.075670000000     0.0219199  
C132     C      0.462820000000     0.435980000000     0.097910000000    -0.0646266  
C133     C      0.425560000000     0.444000000000     0.317930000000    -0.0645497  
C134     C      0.404070000000     0.431520000000     0.343410000000     0.0229722  
C135     C      0.373970000000     0.434500000000     0.345050000000    -0.0644317  
C136     C      0.366050000000     0.450560000000     0.321870000000     0.0216274  
C137     C      0.388640000000     0.464600000000     0.297190000000    -0.0970374  
C138     C      0.418110000000     0.460680000000     0.295200000000     0.0228652  
C139     C      0.415460000000     0.418940000000     0.369340000000     0.0228307  
C140     C      0.426330000000     0.394840000000     0.365200000000    -0.06463    
C141     C      0.442490000000     0.387290000000     0.388670000000     0.021814   
C142     C      0.448690000000     0.404310000000     0.416380000000    -0.097402   
C143     C      0.436390000000     0.427220000000     0.420910000000     0.0221192  
C144     C      0.419630000000     0.434240000000     0.397680000000    -0.0642883  
C145     C      0.372230000000     0.635510000000     0.318950000000    -0.0650107  
C146     C      0.399460000000     0.668390000000     0.312280000000     0.0226296  
C147     C      0.425870000000     0.672310000000     0.292350000000    -0.0640189  
C148     C      0.423980000000     0.643730000000     0.278110000000     0.0205703  
C149     C      0.395900000000     0.610910000000     0.283980000000    -0.0972352  
C150     C      0.370560000000     0.607090000000     0.305100000000     0.0212919  
C151     C      0.398360000000     0.698260000000     0.324550000000     0.0225033  
C152     C      0.368150000000     0.700550000000     0.320610000000    -0.0646154  
C153     C      0.365590000000     0.727410000000     0.333250000000     0.0212617  
C154     C      0.393040000000     0.752410000000     0.350500000000    -0.0952147  
C155     C      0.423600000000     0.750510000000     0.354130000000     0.0205373  
C156     C      0.426370000000     0.723740000000     0.340980000000    -0.0638218  
C157     C      0.230830000000     0.487380000000     0.170090000000    -0.0636271  
C158     C      0.236010000000     0.515430000000     0.152550000000     0.0225831  
C159     C      0.269470000000     0.544260000000     0.151190000000    -0.0643907  
C160     C      0.297000000000     0.545340000000     0.167330000000     0.0212108  
C161     C      0.291790000000     0.517640000000     0.185330000000    -0.0962289  
C162     C      0.258480000000     0.488530000000     0.186460000000     0.020672   
C163     C      0.206730000000     0.515390000000     0.136220000000     0.0226268  
C164     C      0.183020000000     0.487050000000     0.119150000000    -0.063686   
C165     C      0.156450000000     0.488070000000     0.102820000000     0.0206943  
C166     C      0.153030000000     0.517350000000     0.103510000000    -0.0962031  
C167     C      0.176370000000     0.545350000000     0.121020000000     0.0211914  
C168     C      0.202890000000     0.544390000000     0.137140000000    -0.0643687  
C169     C      0.391100000000     0.580740000000     0.766990000000     0.354627   
C170     C      0.407970000000     0.513590000000     0.687410000000     0.354158   
C171     C      0.383340000000     0.485410000000     0.774550000000     0.353593   
C172     C      0.321260000000     0.519700000000     0.702700000000     0.355647   
C173     C      0.116870000000     0.579580000000     0.521550000000     0.354538   
C174     C      0.032710000000     0.513290000000     0.601950000000     0.353567   
C175     C      0.027920000000     0.484120000000     0.014930000000     0.354147   
C176     C      0.125500000000     0.519230000000     0.586210000000     0.355643   
C177     C      0.318550000000     0.778490000000     0.920540000000     0.355048   
C178     C      0.388720000000     0.869220000000     0.847060000000     0.355522   
C179     C      0.408160000000     0.869410000000     0.938600000000     0.355447   
C180     C      0.388740000000     0.779480000000     0.865050000000     0.355274   
C181     C      0.755640000000     0.341230000000     0.786520000000     0.358502   
C182     C      0.854880000000     0.401060000000     0.849930000000     0.353972   
C183     C      0.847900000000     0.428890000000     0.761670000000     0.356276   
C184     C      0.773600000000     0.425150000000     0.841460000000     0.355929   
C185     C      0.509220000000     0.340690000000     0.002230000000     0.359021   
C186     C      0.470790000000     0.400920000000     0.939390000000     0.354141   
C187     C      0.506230000000     0.428400000000     0.527730000000     0.356175   
C188     C      0.576600000000     0.425070000000     0.947780000000     0.35595    
C189     C      0.563570000000     0.142430000000     0.675080000000     0.352365   
C190     C      0.497540000000     0.050930000000     0.598300000000     0.35213    
C191     C      0.477550000000     0.050680000000     0.687300000000     0.351891   
C192     C      0.501660000000     0.141470000000     0.610490000000     0.352083   
C193     C      0.533180000000     0.281770000000     0.542600000000    -0.0648089  
C194     C      0.500780000000     0.251810000000     0.545580000000     0.0230351  
C195     C      0.470880000000     0.251130000000     0.533940000000    -0.0643374  
C196     C      0.473500000000     0.279820000000     0.519390000000     0.0218126  
C197     C      0.506000000000     0.309730000000     0.516520000000    -0.0983155  
C198     C      0.535750000000     0.310370000000     0.528310000000     0.0218727  
C199     C      0.498730000000     0.221600000000     0.560750000000     0.0221363  
C200     C      0.523860000000     0.212150000000     0.554460000000    -0.0639716  
C201     C      0.524110000000     0.185640000000     0.570230000000     0.0205055  
C202     C      0.499240000000     0.167860000000     0.592720000000    -0.0938972  
C203     C      0.473320000000     0.176450000000     0.598430000000     0.0195309  
C204     C      0.473020000000     0.203090000000     0.582500000000    -0.0631081  
C205     C      0.671710000000     0.455490000000     0.932110000000    -0.0644798  
C206     C      0.670490000000     0.445870000000     0.901800000000     0.0226559  
C207     C      0.638830000000     0.432780000000     0.886070000000    -0.0643477  
C208     C      0.608660000000     0.427560000000     0.900750000000     0.0214388  
C209     C      0.609500000000     0.435530000000     0.931430000000    -0.0985344  
C210     C      0.641510000000     0.450510000000     0.946750000000     0.0215312  
C211     C      0.700820000000     0.445850000000     0.887460000000     0.0226278  
C212     C      0.709530000000     0.455650000000     0.857210000000    -0.0644247  
C213     C      0.734670000000     0.450690000000     0.842560000000     0.0214765  
C214     C      0.751300000000     0.435530000000     0.857830000000    -0.0985447  
C215     C      0.743880000000     0.427360000000     0.888450000000     0.0214251  
C216     C      0.719010000000     0.432570000000     0.903140000000    -0.0642596  
C217     C      0.672720000000     0.282710000000     0.744650000000    -0.064853   
C218     C      0.674830000000     0.252850000000     0.741620000000     0.0230699  
C219     C      0.703760000000     0.252090000000     0.753800000000    -0.0643706  
C220     C      0.729920000000     0.280600000000     0.768880000000     0.021869   
C221     C      0.727700000000     0.310420000000     0.771770000000    -0.0983287  
C222     C      0.698840000000     0.311130000000     0.759490000000     0.0218972  
C223     C      0.646600000000     0.222830000000     0.725860000000     0.022077   
C224     C      0.611660000000     0.213160000000     0.731450000000    -0.0639521  
C225     C      0.584910000000     0.186660000000     0.715270000000     0.020473   
C226     C      0.592370000000     0.169090000000     0.693070000000    -0.0938923  
C227     C      0.627230000000     0.177980000000     0.687980000000     0.0195292  
C228     C      0.654150000000     0.204600000000     0.704320000000    -0.0630337  
C229     C      0.469240000000     0.994550000000     0.752930000000    -0.0642082  
C230     C      0.432960000000     0.974020000000     0.756160000000     0.0225248  
C231     C      0.411080000000     0.980900000000     0.737990000000    -0.0630084  
C232     C      0.425340000000     0.006770000000     0.716140000000     0.0200868  
C233     C      0.461610000000     0.025830000000     0.712040000000    -0.0949745  
C234     C      0.483330000000     0.019850000000     0.731020000000     0.0224414  
C235     C      0.418760000000     0.945000000000     0.777750000000     0.0232106  
C236     C      0.435580000000     0.925760000000     0.781020000000    -0.0649217  
C237     C      0.425060000000     0.900700000000     0.803090000000     0.0233507  
C238     C      0.397010000000     0.893680000000     0.822150000000    -0.0982977  
C239     C      0.378760000000     0.911410000000     0.817980000000     0.0212591  
C240     C      0.389650000000     0.937030000000     0.795990000000    -0.0639233  
C241     C      0.416380000000     0.924380000000     0.005180000000    -0.0643369  
C242     C      0.452660000000     0.945270000000     0.008100000000     0.0236191  
C243     C      0.474570000000     0.938920000000     0.989480000000    -0.064404   
C244     C      0.460310000000     0.913260000000     0.967440000000     0.0211758  
C245     C      0.424010000000     0.893890000000     0.963610000000    -0.0981107  
C246     C      0.402280000000     0.899290000000     0.983070000000     0.0228075  
C247     C      0.466850000000     0.974300000000     0.529680000000     0.0225832  
C248     C      0.449690000000     0.993170000000     0.533230000000    -0.0643001  
C249     C      0.460420000000     0.018460000000     0.555080000000     0.0224584  
C250     C      0.489000000000     0.026090000000     0.573670000000    -0.0951494  
C251     C      0.507530000000     0.008670000000     0.569270000000     0.0201112  
C252     C      0.496440000000     0.982820000000     0.547470000000    -0.0630601  
C253     C      0.943460000000     0.442530000000     0.971700000000    -0.0644374  
C254     C      0.952390000000     0.430470000000     0.946020000000     0.0230234  
C255     C      0.985600000000     0.433650000000     0.944240000000    -0.0651315  
C256     C      0.009830000000     0.449550000000     0.967470000000     0.0221364  
C257     C      0.001410000000     0.463240000000     0.992340000000    -0.0969813  
C258     C      0.967850000000     0.459050000000     0.994490000000     0.0217771  
C259     C      0.928290000000     0.418240000000     0.920020000000     0.0227156  
C260     C      0.892880000000     0.394040000000     0.923960000000    -0.0646244  
C261     C      0.869120000000     0.386790000000     0.900480000000     0.0217106  
C262     C      0.880340000000     0.404220000000     0.872950000000    -0.0973445  
C263     C      0.915970000000     0.427240000000     0.868600000000     0.0220092  
C264     C      0.939790000000     0.433960000000     0.891840000000    -0.0643077  
C265     C      0.921900000000     0.492900000000     0.712810000000    -0.0641356  
C266     C      0.924270000000     0.471240000000     0.691380000000     0.0230888  
C267     C      0.899150000000     0.436400000000     0.691620000000    -0.0647893  
C268     C      0.873540000000     0.423080000000     0.713810000000     0.0220055  
C269     C      0.872220000000     0.444300000000     0.736190000000    -0.0968821  
C270     C      0.896020000000     0.479500000000     0.735080000000     0.0217258  
C271     C      0.953770000000     0.484030000000     0.669830000000     0.0219751  
C272     C      0.965260000000     0.514670000000     0.653870000000    -0.0629799  
C273     C      0.991740000000     0.524990000000     0.632260000000     0.0193046  
C274     C      0.007100000000     0.504850000000     0.626420000000    -0.093407   
C275     C      0.996450000000     0.474980000000     0.643230000000     0.0196262  
C276     C      0.970210000000     0.464760000000     0.664690000000    -0.0635692  
C277     C      0.190410000000     0.633990000000     0.968520000000    -0.0650073  
C278     C      0.196410000000     0.666870000000     0.974850000000     0.022915   
C279     C      0.174180000000     0.670840000000     0.994970000000    -0.0652165  
C280     C      0.147420000000     0.642370000000     0.009700000000     0.0212684  
C281     C      0.142340000000     0.609590000000     0.504140000000    -0.0971469  
C282     C      0.163590000000     0.605670000000     0.982860000000     0.0207803  
C283     C      0.227470000000     0.696730000000     0.962000000000     0.0223186  
C284     C      0.260240000000     0.699340000000     0.965320000000    -0.0645859  
C285     C      0.289730000000     0.726320000000     0.952290000000     0.0213024  
C286     C      0.287090000000     0.751110000000     0.935290000000    -0.0951833  
C287     C      0.254370000000     0.748850000000     0.932210000000     0.0205057  
C288     C      0.224770000000     0.721970000000     0.945750000000    -0.063778   
C289     C      0.476610000000     0.514480000000     0.635510000000    -0.0634636  
C290     C      0.456860000000     0.483700000000     0.619750000000     0.0224561  
C291     C      0.420840000000     0.464440000000     0.625080000000    -0.0642008  
C292     C      0.405100000000     0.474830000000     0.646490000000     0.0213007  
C293     C      0.424900000000     0.504870000000     0.663060000000    -0.095009   
C294     C      0.460730000000     0.524980000000     0.657060000000     0.0203558  
C295     C      0.473240000000     0.470850000000     0.598160000000     0.0229113  
C296     C      0.497600000000     0.492470000000     0.576680000000    -0.0640149  
C297     C      0.509760000000     0.479030000000     0.554370000000     0.0216574  
C298     C      0.497670000000     0.443820000000     0.553260000000    -0.0966591  
C299     C      0.474790000000     0.422620000000     0.575680000000     0.0218089  
C300     C      0.462840000000     0.435990000000     0.597910000000    -0.0645867  
C301     C      0.425560000000     0.444000000000     0.817920000000    -0.0645327  
C302     C      0.404070000000     0.431520000000     0.843400000000     0.0229199  
C303     C      0.373970000000     0.434510000000     0.845040000000    -0.0644301  
C304     C      0.366050000000     0.450560000000     0.821870000000     0.0216041  
C305     C      0.388640000000     0.464600000000     0.797180000000    -0.0970058  
C306     C      0.418110000000     0.460680000000     0.795190000000     0.0228341  
C307     C      0.415470000000     0.418950000000     0.869330000000     0.0228805  
C308     C      0.426330000000     0.394840000000     0.865190000000    -0.0647441  
C309     C      0.442490000000     0.387290000000     0.888660000000     0.0218847  
C310     C      0.448700000000     0.404310000000     0.916370000000    -0.0975505  
C311     C      0.436390000000     0.427230000000     0.920900000000     0.0220759  
C312     C      0.419640000000     0.434250000000     0.897660000000    -0.0643227  
C313     C      0.372230000000     0.635500000000     0.818940000000    -0.0649481  
C314     C      0.399460000000     0.668390000000     0.812280000000     0.0225614  
C315     C      0.425870000000     0.672310000000     0.792340000000    -0.0640226  
C316     C      0.423980000000     0.643730000000     0.778110000000     0.020569   
C317     C      0.395900000000     0.610910000000     0.783970000000    -0.0972224  
C318     C      0.370560000000     0.607090000000     0.805100000000     0.0212587  
C319     C      0.398360000000     0.698260000000     0.824550000000     0.0225152  
C320     C      0.368140000000     0.700550000000     0.820600000000    -0.0646921  
C321     C      0.365590000000     0.727410000000     0.833250000000     0.0213367  
C322     C      0.393030000000     0.752400000000     0.850500000000    -0.0952594  
C323     C      0.423600000000     0.750510000000     0.854130000000     0.0205198  
C324     C      0.426370000000     0.723740000000     0.840980000000    -0.0638529  
C325     C      0.230830000000     0.487380000000     0.670080000000    -0.0636533  
C326     C      0.236010000000     0.515430000000     0.652550000000     0.0225745  
C327     C      0.269470000000     0.544260000000     0.651180000000    -0.0643586  
C328     C      0.297000000000     0.545340000000     0.667330000000     0.0211802  
C329     C      0.291790000000     0.517640000000     0.685320000000    -0.0962363  
C330     C      0.258480000000     0.488530000000     0.686450000000     0.0206709  
C331     C      0.206730000000     0.515390000000     0.636220000000     0.0225819  
C332     C      0.183020000000     0.487050000000     0.619150000000    -0.0636847  
C333     C      0.156450000000     0.488080000000     0.602810000000     0.0206564  
C334     C      0.153030000000     0.517350000000     0.603510000000    -0.0961827  
C335     C      0.176370000000     0.545350000000     0.621020000000     0.0211802  
C336     C      0.202890000000     0.544400000000     0.637130000000    -0.0643817  
H1       H      0.445600000000     0.228310000000     0.035770000000     0.0489031  
H2       H      0.450110000000     0.278680000000     0.510610000000     0.0407771  
H3       H      0.561130000000     0.333090000000     0.026620000000     0.0404209  
H4       H      0.556620000000     0.283290000000     0.051730000000     0.0486204  
H5       H      0.543650000000     0.225530000000     0.037480000000     0.0483833  
H6       H      0.544270000000     0.179480000000     0.065080000000     0.0423218  
H7       H      0.453770000000     0.163110000000     0.115590000000     0.0413411  
H8       H      0.453400000000     0.209920000000     0.087890000000     0.048457   
H9       H      0.636900000000     0.424800000000     0.362820000000     0.0483708  
H10      H      0.584380000000     0.416070000000     0.388320000000     0.0397748  
H11      H      0.642950000000     0.456960000000     0.470400000000     0.0406427  
H12      H      0.695820000000     0.465930000000     0.444730000000     0.048333   
H13      H      0.696170000000     0.466240000000     0.344620000000     0.0483394  
H14      H      0.739920000000     0.457290000000     0.318950000000     0.0406148  
H15      H      0.756350000000     0.415720000000     0.400840000000     0.0397272  
H16      H      0.712700000000     0.424430000000     0.426340000000     0.0484141  
H17      H      0.705960000000     0.229350000000     0.251950000000     0.048824   
H18      H      0.751970000000     0.279400000000     0.278030000000     0.0408402  
H19      H      0.696460000000     0.333780000000     0.261200000000     0.0403696  
H20      H      0.651020000000     0.284280000000     0.235150000000     0.048537   
H21      H      0.604960000000     0.226310000000     0.248250000000     0.0483233  
H22      H      0.558300000000     0.180260000000     0.219950000000     0.0422845  
H23      H      0.633730000000     0.164810000000     0.171050000000     0.0413297  
H24      H      0.680880000000     0.211610000000     0.199440000000     0.0485011  
H25      H      0.383020000000     0.965570000000     0.239930000000     0.0483885  
H26      H      0.408050000000     0.010950000000     0.201770000000     0.0390518  
H27      H      0.511420000000     0.034560000000     0.228740000000     0.0403563  
H28      H      0.486940000000     0.990810000000     0.267150000000     0.0486997  
H29      H      0.457350000000     0.930390000000     0.266750000000     0.0488973  
H30      H      0.439270000000     0.887050000000     0.305430000000     0.0397974  
H31      H      0.356990000000     0.906400000000     0.332410000000     0.0388197  
H32      H      0.376120000000     0.951350000000     0.294040000000     0.0485081  
H33      H      0.502620000000     0.954530000000     0.491160000000     0.0485046  
H34      H      0.477620000000     0.909530000000     0.452700000000     0.0385939  
H35      H      0.374180000000     0.884340000000     0.480990000000     0.0396872  
H36      H      0.398690000000     0.927750000000     0.019740000000     0.0488774  
H37      H      0.427550000000     0.988150000000     0.019290000000     0.0487402  
H38      H      0.445990000000     0.031880000000     0.057590000000     0.0405347  
H39      H      0.529710000000     0.014150000000     0.083330000000     0.0392489  
H40      H      0.510250000000     0.968790000000     0.045270000000     0.0484771  
H41      H      0.993040000000     0.424570000000     0.424590000000     0.0490112  
H42      H      0.035600000000     0.452570000000     0.465290000000     0.0387935  
H43      H      0.960690000000     0.469280000000     0.513520000000     0.0386316  
H44      H      0.918190000000     0.440750000000     0.473450000000     0.0492864  
H45      H      0.883440000000     0.381620000000     0.445530000000     0.0489478  
H46      H      0.841770000000     0.368980000000     0.404410000000     0.0401458  
H47      H      0.925300000000     0.440900000000     0.347530000000     0.0389377  
H48      H      0.966880000000     0.452940000000     0.388330000000     0.0491881  
H49      H      0.899760000000     0.419200000000     0.174960000000     0.0486083  
H50      H      0.855290000000     0.395900000000     0.213850000000     0.0405014  
H51      H      0.895540000000     0.496430000000     0.252090000000     0.0410159  
H52      H      0.940910000000     0.519860000000     0.213160000000     0.0487677  
H53      H      0.953070000000     0.530040000000     0.157420000000     0.0483733  
H54      H      0.999500000000     0.548160000000     0.119610000000     0.0414101  
H55      H      0.008030000000     0.459080000000     0.139500000000     0.0424484  
H56      H      0.962590000000     0.441490000000     0.177160000000     0.0484315  
H57      H      0.178420000000     0.696020000000     0.500230000000     0.0492535  
H58      H      0.131370000000     0.646100000000     0.025940000000     0.0406212  
H59      H      0.160280000000     0.580770000000     0.477930000000     0.0412982  
H60      H      0.207000000000     0.630270000000     0.452860000000     0.0489377  
H61      H      0.263030000000     0.680360000000     0.478000000000     0.0491155  
H62      H      0.314550000000     0.727340000000     0.455110000000     0.0412394  
H63      H      0.251650000000     0.767710000000     0.419300000000     0.0409422  
H64      H      0.199710000000     0.720400000000     0.442880000000     0.049223   
H65      H      0.404710000000     0.441060000000     0.112770000000     0.0487478  
H66      H      0.377350000000     0.458950000000     0.150340000000     0.0417698  
H67      H      0.476600000000     0.548270000000     0.169540000000     0.0412309  
H68      H      0.504430000000     0.529850000000     0.131850000000     0.0485377  
H69      H      0.506070000000     0.519430000000     0.076330000000     0.0488255  
H70      H      0.527420000000     0.495940000000     0.037340000000     0.0411801  
H71      H      0.465320000000     0.395430000000     0.075610000000     0.040492   
H72      H      0.444750000000     0.418790000000     0.114600000000     0.0485538  
H73      H      0.357070000000     0.425110000000     0.364560000000     0.048995   
H74      H      0.343220000000     0.453370000000     0.323920000000     0.0388606  
H75      H      0.435860000000     0.471160000000     0.276310000000     0.0386759  
H76      H      0.449120000000     0.442370000000     0.316280000000     0.0492919  
H77      H      0.423370000000     0.382730000000     0.343500000000     0.0489417  
H78      H      0.451790000000     0.369560000000     0.384590000000     0.0401733  
H79      H      0.440740000000     0.440590000000     0.442120000000     0.0389657  
H80      H      0.411780000000     0.453150000000     0.401340000000     0.0492611  
H81      H      0.447080000000     0.697490000000     0.286840000000     0.0492936  
H82      H      0.443910000000     0.647400000000     0.261970000000     0.0406304  
H83      H      0.348670000000     0.582170000000     0.310250000000     0.0412776  
H84      H      0.351740000000     0.631840000000     0.334460000000     0.0489949  
H85      H      0.346330000000     0.681370000000     0.307790000000     0.0491638  
H86      H      0.341720000000     0.728150000000     0.330000000000     0.0413081  
H87      H      0.445190000000     0.769520000000     0.367250000000     0.0408746  
H88      H      0.449910000000     0.722410000000     0.344330000000     0.0491978  
H89      H      0.274410000000     0.566060000000     0.137520000000     0.0485261  
H90      H      0.322400000000     0.568070000000     0.165840000000     0.0414272  
H91      H      0.253750000000     0.466770000000     0.200080000000     0.0413875  
H92      H      0.205260000000     0.464890000000     0.171680000000     0.0487657  
H93      H      0.185470000000     0.464420000000     0.117920000000     0.0488248  
H94      H      0.138750000000     0.466080000000     0.089570000000     0.0414265  
H95      H      0.174320000000     0.568210000000     0.122170000000     0.0414225  
H96      H      0.220410000000     0.566430000000     0.150440000000     0.0485046  
H97      H      0.445600000000     0.228310000000     0.535780000000     0.0487994  
H98      H      0.450110000000     0.278680000000     0.010600000000     0.0408671  
H99      H      0.561140000000     0.333080000000     0.526600000000     0.0403905  
H100     H      0.556620000000     0.283280000000     0.551720000000     0.0485344  
H101     H      0.543640000000     0.225520000000     0.537470000000     0.0483525  
H102     H      0.544260000000     0.179460000000     0.565070000000     0.0422483  
H103     H      0.453770000000     0.163120000000     0.615590000000     0.0412636  
H104     H      0.453420000000     0.209920000000     0.587900000000     0.0485474  
H105     H      0.636900000000     0.424790000000     0.862830000000     0.048406   
H106     H      0.584370000000     0.416070000000     0.888320000000     0.0397262  
H107     H      0.642940000000     0.456960000000     0.970400000000     0.0405318  
H108     H      0.695810000000     0.465930000000     0.944730000000     0.0482822  
H109     H      0.696170000000     0.466240000000     0.844630000000     0.0483206  
H110     H      0.739920000000     0.457290000000     0.818950000000     0.0405864  
H111     H      0.756350000000     0.415720000000     0.900840000000     0.0396901  
H112     H      0.712700000000     0.424420000000     0.926350000000     0.0483021  
H113     H      0.705960000000     0.229350000000     0.751950000000     0.0487636  
H114     H      0.751970000000     0.279400000000     0.778040000000     0.0408289  
H115     H      0.696460000000     0.333780000000     0.761200000000     0.0403597  
H116     H      0.651020000000     0.284280000000     0.735140000000     0.048526   
H117     H      0.604960000000     0.226310000000     0.748250000000     0.0483096  
H118     H      0.558310000000     0.180260000000     0.719950000000     0.0422701  
H119     H      0.633730000000     0.164810000000     0.671050000000     0.0413019  
H120     H      0.680880000000     0.211610000000     0.699440000000     0.0484753  
H121     H      0.383020000000     0.965570000000     0.739930000000     0.0483467  
H122     H      0.408050000000     0.010960000000     0.701770000000     0.0390515  
H123     H      0.511420000000     0.034560000000     0.728740000000     0.0403625  
H124     H      0.486940000000     0.990810000000     0.767150000000     0.0486633  
H125     H      0.457350000000     0.930390000000     0.766750000000     0.0489012  
H126     H      0.439260000000     0.887040000000     0.805430000000     0.0397606  
H127     H      0.356980000000     0.906400000000     0.832410000000     0.0387652  
H128     H      0.376120000000     0.951350000000     0.794040000000     0.0485242  
H129     H      0.502620000000     0.954530000000     0.991150000000     0.0484522  
H130     H      0.477620000000     0.909520000000     0.952700000000     0.0385539  
H131     H      0.374180000000     0.884340000000     0.980980000000     0.0397376  
H132     H      0.398690000000     0.927740000000     0.519750000000     0.0488797  
H133     H      0.427550000000     0.988140000000     0.519300000000     0.0487326  
H134     H      0.445980000000     0.031870000000     0.557590000000     0.0404496  
H135     H      0.529710000000     0.014150000000     0.583330000000     0.039198   
H136     H      0.510260000000     0.968790000000     0.545270000000     0.0483494  
H137     H      0.993040000000     0.424580000000     0.924590000000     0.0489964  
H138     H      0.035600000000     0.452580000000     0.965290000000     0.038665   
H139     H      0.960690000000     0.469270000000     0.013520000000     0.0391158  
H140     H      0.918190000000     0.440740000000     0.973460000000     0.0491329  
H141     H      0.883450000000     0.381610000000     0.945530000000     0.0488224  
H142     H      0.841770000000     0.368970000000     0.904410000000     0.0401353  
H143     H      0.925300000000     0.440910000000     0.847530000000     0.0389439  
H144     H      0.966880000000     0.452950000000     0.888330000000     0.0491644  
H145     H      0.899760000000     0.419200000000     0.674960000000     0.0485617  
H146     H      0.855290000000     0.395900000000     0.713850000000     0.0404854  
H147     H      0.895550000000     0.496430000000     0.752090000000     0.0409989  
H148     H      0.940910000000     0.519860000000     0.713160000000     0.0487446  
H149     H      0.953060000000     0.530040000000     0.657420000000     0.0483476  
H150     H      0.999500000000     0.548170000000     0.619620000000     0.0413676  
H151     H      0.008030000000     0.459080000000     0.639500000000     0.0424269  
H152     H      0.962580000000     0.441490000000     0.677150000000     0.0484369  
H153     H      0.178410000000     0.696020000000     0.000230000000     0.0499287  
H154     H      0.131380000000     0.646110000000     0.525950000000     0.0407     
H155     H      0.160290000000     0.580770000000     0.977930000000     0.0412567  
H156     H      0.207010000000     0.630270000000     0.952860000000     0.0488906  
H157     H      0.263030000000     0.680360000000     0.978000000000     0.0490177  
H158     H      0.314550000000     0.727340000000     0.955110000000     0.0411737  
H159     H      0.251650000000     0.767710000000     0.919300000000     0.0409127  
H160     H      0.199700000000     0.720390000000     0.942880000000     0.0491068  
H161     H      0.404720000000     0.441060000000     0.612770000000     0.0486693  
H162     H      0.377360000000     0.458950000000     0.650340000000     0.0417739  
H163     H      0.476600000000     0.548280000000     0.669530000000     0.0412279  
H164     H      0.504430000000     0.529860000000     0.631840000000     0.0484931  
H165     H      0.506070000000     0.519430000000     0.576320000000     0.0487817  
H166     H      0.527430000000     0.495940000000     0.537330000000     0.0411312  
H167     H      0.465350000000     0.395440000000     0.575620000000     0.0404818  
H168     H      0.444770000000     0.418810000000     0.614610000000     0.0485114  
H169     H      0.357070000000     0.425120000000     0.864550000000     0.0489491  
H170     H      0.343220000000     0.453370000000     0.823920000000     0.0388399  
H171     H      0.435860000000     0.471160000000     0.776300000000     0.0386751  
H172     H      0.449120000000     0.442370000000     0.816270000000     0.0492738  
H173     H      0.423370000000     0.382730000000     0.843500000000     0.0489666  
H174     H      0.451790000000     0.369560000000     0.884590000000     0.0401236  
H175     H      0.440750000000     0.440600000000     0.942110000000     0.0388854  
H176     H      0.411790000000     0.453160000000     0.901330000000     0.049215   
H177     H      0.447080000000     0.697490000000     0.786840000000     0.0492749  
H178     H      0.443910000000     0.647400000000     0.761970000000     0.0406149  
H179     H      0.348670000000     0.582170000000     0.810250000000     0.0412634  
H180     H      0.351740000000     0.631840000000     0.834460000000     0.0489322  
H181     H      0.346320000000     0.681370000000     0.807790000000     0.0491788  
H182     H      0.341710000000     0.728140000000     0.830000000000     0.0412673  
H183     H      0.445190000000     0.769520000000     0.867240000000     0.0408395  
H184     H      0.449910000000     0.722410000000     0.844320000000     0.0491731  
H185     H      0.274410000000     0.566070000000     0.637510000000     0.0484605  
H186     H      0.322400000000     0.568070000000     0.665830000000     0.0413977  
H187     H      0.253750000000     0.466770000000     0.700080000000     0.0413625  
H188     H      0.205260000000     0.464890000000     0.671670000000     0.048748   
H189     H      0.185470000000     0.464420000000     0.617920000000     0.0487819  
H190     H      0.138750000000     0.466090000000     0.589560000000     0.0413869  
H191     H      0.174320000000     0.568210000000     0.622170000000     0.0413953  
H192     H      0.220410000000     0.566430000000     0.650440000000     0.0484833  
In1      In     0.376230000000     0.525360000000     0.233570000000     2.43652    
In2      In     0.075960000000     0.524520000000     0.055530000000     2.43646    
In3      In     0.376780000000     0.825520000000     0.392770000000     2.43373    
In4      In     0.807720000000     0.399270000000     0.310340000000     2.40516    
In5      In     0.516110000000     0.398910000000     0.478890000000     2.40411    
In6      In     0.509710000000     0.095710000000     0.142750000000     2.45652    
In7      In     0.376230000000     0.525360000000     0.733570000000     2.43652    
In8      In     0.075960000000     0.524520000000     0.555530000000     2.43648    
In9      In     0.376780000000     0.825510000000     0.892770000000     2.43389    
In10     In     0.807720000000     0.399270000000     0.810340000000     2.40483    
In11     In     0.516100000000     0.398900000000     0.978890000000     2.40335    
In12     In     0.509710000000     0.095710000000     0.642750000000     2.45668    
O1       O      0.351550000000     0.545140000000     0.200700000000    -0.504771   
O2       O      0.318360000000     0.496630000000     0.220610000000    -0.477718   
O3       O      0.423040000000     0.541200000000     0.202200000000    -0.47585    
O4       O      0.410230000000     0.582280000000     0.245160000000    -0.479844   
O5       O      0.353880000000     0.482090000000     0.268430000000    -0.47772    
O6       O      0.365530000000     0.551470000000     0.271990000000    -0.507868   
O7       O      0.377330000000     0.492770000000     0.195850000000    -0.505518   
O8       O      0.408610000000     0.508740000000     0.260300000000    -0.504158   
O9       O      0.121250000000     0.544780000000     0.087940000000    -0.504504   
O10      O      0.104620000000     0.495880000000     0.068680000000    -0.477763   
O11      O      0.045610000000     0.540730000000     0.086920000000    -0.475679   
O12      O      0.099490000000     0.581270000000     0.043460000000    -0.479703   
O13      O      0.054210000000     0.481080000000     0.020840000000    -0.477738   
O14      O      0.112810000000     0.550330000000     0.016790000000    -0.507744   
O15      O      0.042070000000     0.492370000000     0.093630000000    -0.505189   
O16      O      0.026270000000     0.507340000000     0.029250000000    -0.504052   
O17      O      0.363320000000     0.783720000000     0.358790000000    -0.503074   
O18      O      0.408910000000     0.798990000000     0.385380000000    -0.47568    
O19      O      0.359810000000     0.854660000000     0.360710000000    -0.478872   
O20      O      0.317660000000     0.797840000000     0.400340000000    -0.475402   
O21      O      0.423250000000     0.855970000000     0.424740000000    -0.478601   
O22      O      0.348570000000     0.783340000000     0.426610000000    -0.502699   
O23      O      0.410890000000     0.861710000000     0.356580000000    -0.508682   
O24      O      0.378000000000     0.860740000000     0.429230000000    -0.508638   
O25      O      0.781920000000     0.404590000000     0.352640000000    -0.498547   
O26      O      0.783210000000     0.433500000000     0.314510000000    -0.478218   
O27      O      0.824010000000     0.376360000000     0.348860000000    -0.474797   
O28      O      0.781330000000     0.342020000000     0.299720000000    -0.476208   
O29      O      0.842590000000     0.446080000000     0.281280000000    -0.473191   
O30      O      0.756160000000     0.369340000000     0.285900000000    -0.499684   
O31      O      0.861780000000     0.424370000000     0.331040000000    -0.49588    
O32      O      0.832630000000     0.397230000000     0.266580000000    -0.499725   
O33      O      0.547370000000     0.404680000000     0.436500000000    -0.498077   
O34      O      0.575470000000     0.433140000000     0.474820000000    -0.47781    
O35      O      0.476630000000     0.376280000000     0.440240000000    -0.474702   
O36      O      0.484250000000     0.341570000000     0.489290000000    -0.476104   
O37      O      0.528980000000     0.445620000000     0.508090000000    -0.47334    
O38      O      0.537310000000     0.368810000000     0.502870000000    -0.499684   
O39      O      0.487480000000     0.424040000000     0.458480000000    -0.495809   
O40      O      0.489240000000     0.396750000000     0.522780000000    -0.499392   
O41      O      0.526400000000     0.135500000000     0.106530000000    -0.507512   
O42      O      0.480270000000     0.124010000000     0.131080000000    -0.478815   
O43      O      0.526950000000     0.066410000000     0.111270000000    -0.478813   
O44      O      0.567860000000     0.125300000000     0.154590000000    -0.478963   
O45      O      0.462860000000     0.065080000000     0.174170000000    -0.478542   
O46      O      0.532490000000     0.135720000000     0.178860000000    -0.507441   
O47      O      0.475120000000     0.058060000000     0.108000000000    -0.5111     
O48      O      0.507570000000     0.058950000000     0.177690000000    -0.511152   
O49      O      0.351560000000     0.545140000000     0.700690000000    -0.504686   
O50      O      0.318370000000     0.496630000000     0.720600000000    -0.47776    
O51      O      0.423040000000     0.541200000000     0.702200000000    -0.475933   
O52      O      0.410240000000     0.582290000000     0.745160000000    -0.479746   
O53      O      0.353880000000     0.482090000000     0.768430000000    -0.477748   
O54      O      0.365530000000     0.551470000000     0.771980000000    -0.508041   
O55      O      0.377330000000     0.492770000000     0.695840000000    -0.505375   
O56      O      0.408610000000     0.508740000000     0.760290000000    -0.504255   
O57      O      0.121250000000     0.544780000000     0.587940000000    -0.504635   
O58      O      0.104620000000     0.495880000000     0.568680000000    -0.477902   
O59      O      0.045610000000     0.540740000000     0.586910000000    -0.475522   
O60      O      0.099490000000     0.581270000000     0.543460000000    -0.479765   
O61      O      0.054210000000     0.481090000000     0.520840000000    -0.477938   
O62      O      0.112810000000     0.550330000000     0.516790000000    -0.507785   
O63      O      0.042060000000     0.492370000000     0.593630000000    -0.505192   
O64      O      0.026280000000     0.507350000000     0.529240000000    -0.504166   
O65      O      0.363320000000     0.783720000000     0.858790000000    -0.50338    
O66      O      0.408900000000     0.798990000000     0.885380000000    -0.47607    
O67      O      0.359800000000     0.854660000000     0.860710000000    -0.47869    
O68      O      0.317660000000     0.797840000000     0.900340000000    -0.475429   
O69      O      0.423250000000     0.855960000000     0.924740000000    -0.478578   
O70      O      0.348560000000     0.783340000000     0.926610000000    -0.503031   
O71      O      0.410880000000     0.861710000000     0.856580000000    -0.508727   
O72      O      0.378000000000     0.860740000000     0.929230000000    -0.508541   
O73      O      0.781920000000     0.404590000000     0.852640000000    -0.498576   
O74      O      0.783210000000     0.433500000000     0.814510000000    -0.478207   
O75      O      0.824020000000     0.376360000000     0.848860000000    -0.474725   
O76      O      0.781330000000     0.342020000000     0.799720000000    -0.47626    
O77      O      0.842590000000     0.446080000000     0.781280000000    -0.473177   
O78      O      0.756160000000     0.369340000000     0.785900000000    -0.499666   
O79      O      0.861790000000     0.424380000000     0.831040000000    -0.495724   
O80      O      0.832630000000     0.397230000000     0.766580000000    -0.499696   
O81      O      0.547370000000     0.404670000000     0.936500000000    -0.498069   
O82      O      0.575460000000     0.433140000000     0.974820000000    -0.477886   
O83      O      0.476620000000     0.376280000000     0.940240000000    -0.474706   
O84      O      0.484250000000     0.341570000000     0.989280000000    -0.47675    
O85      O      0.528970000000     0.445610000000     0.008090000000    -0.473068   
O86      O      0.537300000000     0.368820000000     0.002880000000    -0.499664   
O87      O      0.487480000000     0.424050000000     0.958470000000    -0.495589   
O88      O      0.489220000000     0.396750000000     0.022760000000    -0.499298   
O89      O      0.526400000000     0.135500000000     0.606530000000    -0.507453   
O90      O      0.480270000000     0.124010000000     0.631080000000    -0.478874   
O91      O      0.526950000000     0.066410000000     0.611270000000    -0.478816   
O92      O      0.567860000000     0.125300000000     0.654590000000    -0.479009   
O93      O      0.462860000000     0.065090000000     0.674170000000    -0.478432   
O94      O      0.532490000000     0.135720000000     0.678860000000    -0.50746    
O95      O      0.475120000000     0.058060000000     0.608010000000    -0.511128   
O96      O      0.507570000000     0.058950000000     0.677690000000    -0.511106   


