data_structure

_audit_creation_method RASPA-1.0
_audit_creation_date 2023-5-22
_audit_author_name 'Poobodin Mano'

_cell_length_a    46.7657
_cell_length_b    46.2673
_cell_length_c    41.1726
_cell_angle_alpha 90.0077
_cell_angle_beta  90.0025
_cell_angle_gamma 105.898
_cell_volume      85678.6

_symmetry_cell_setting          triclinic
_symmetry_space_group_name_Hall 'P 1'
_symmetry_space_group_name_H-M  'P 1'
_symmetry_Int_Tables_number     1

_symmetry_equiv_pos_as_xyz 'x,y,z'

loop_
_atom_site_label
_atom_site_type_symbol
_atom_site_fract_x
_atom_site_fract_y
_atom_site_fract_z
_atom_site_charge
C1       C      0.200240000000     0.398680000000     0.442310000000     0.357732   
C2       C      0.117330000000     0.309310000000     0.443850000000     0.357183   
C3       C      0.161090000000     0.341430000000     0.358000000000     0.355708   
C4       C      0.211170000000     0.315480000000     0.445710000000     0.356459   
C5       C      0.422300000000     0.177930000000     0.529340000000     0.357941   
C6       C      0.333110000000     0.094160000000     0.528350000000     0.357227   
C7       C      0.367570000000     0.138130000000     0.613760000000     0.356236   
C8       C      0.339510000000     0.188190000000     0.525960000000     0.356895   
C9       C      0.328270000000     0.075920000000     0.942310000000     0.357889   
C10      C      0.411180000000     0.165300000000     0.943860000000     0.356681   
C11      C      0.367400000000     0.133180000000     0.858000000000     0.355404   
C12      C      0.317330000000     0.159120000000     0.945710000000     0.356266   
C13      C      0.106220000000     0.296700000000     0.029340000000     0.358029   
C14      C      0.195410000000     0.380470000000     0.028350000000     0.357123   
C15      C      0.160960000000     0.336520000000     0.113760000000     0.356295   
C16      C      0.189000000000     0.286440000000     0.025960000000     0.356785   
C17      C      0.988810000000     0.189990000000     0.979940000000    -0.0637593  
C18      C      0.994580000000     0.221510000000     0.979530000000     0.0226558  
C19      C      0.472820000000     0.234160000000     0.966920000000    -0.0643716  
C20      C      0.445910000000     0.215810000000     0.955230000000     0.0216877  
C21      C      0.440080000000     0.184340000000     0.955790000000    -0.0986343  
C22      C      0.461830000000     0.171590000000     0.968150000000     0.020623   
C23      C      0.023000000000     0.241180000000     0.992510000000     0.0224541  
C24      C      0.035350000000     0.233470000000     0.021270000000    -0.0644004  
C25      C      0.062040000000     0.251860000000     0.033490000000     0.0215893  
C26      C      0.077070000000     0.278390000000     0.017230000000    -0.0992594  
C27      C      0.064660000000     0.286330000000     0.988660000000     0.0210426  
C28      C      0.037900000000     0.267930000000     0.976440000000    -0.0641334  
C29      C      0.266130000000     0.003840000000     0.949270000000    -0.0639072  
C30      C      0.272440000000     0.992290000000     0.979180000000     0.0220369  
C31      C      0.298030000000     0.008010000000     0.996330000000    -0.0636043  
C32      C      0.316600000000     0.034850000000     0.984070000000     0.0208962  
C33      C      0.310000000000     0.046520000000     0.954390000000    -0.0992208  
C34      C      0.284690000000     0.030610000000     0.937020000000     0.0214173  
C35      C      0.252470000000     0.463890000000     0.992310000000     0.022515   
C36      C      0.221340000000     0.457820000000     0.989840000000    -0.0638835  
C37      C      0.202660000000     0.430880000000     0.001790000000     0.0206231  
C38      C      0.214740000000     0.409430000000     0.016380000000    -0.0986308  
C39      C      0.245800000000     0.415580000000     0.019030000000     0.02175    
C40      C      0.264430000000     0.442470000000     0.007170000000    -0.064407   
C41      C      0.227450000000     0.224530000000     0.023220000000    -0.0642547  
C42      C      0.238680000000     0.227210000000     0.991370000000     0.0229883  
C43      C      0.232380000000     0.248820000000     0.970600000000    -0.0642466  
C44      C      0.215680000000     0.267660000000     0.981630000000     0.0219027  
C45      C      0.205100000000     0.265400000000     0.013690000000    -0.0972692  
C46      C      0.210890000000     0.243490000000     0.034300000000     0.0220284  
C47      C      0.257780000000     0.208320000000     0.980160000000     0.0228891  
C48      C      0.279410000000     0.202420000000     0.000900000000    -0.0640658  
C49      C      0.298380000000     0.185890000000     0.989910000000     0.0217821  
C50      C      0.296210000000     0.175070000000     0.957900000000    -0.0970768  
C51      C      0.274300000000     0.180460000000     0.937300000000     0.0218843  
C52      C      0.255220000000     0.196860000000     0.948340000000    -0.0642242  
C53      C      0.378930000000     0.109820000000     0.771680000000    -0.0641099  
C54      C      0.372230000000     0.133050000000     0.753810000000     0.0227667  
C55      C      0.366120000000     0.157100000000     0.770630000000    -0.0644463  
C56      C      0.365380000000     0.157350000000     0.804440000000     0.0222666  
C57      C      0.370920000000     0.133640000000     0.822340000000    -0.0979164  
C58      C      0.378260000000     0.110110000000     0.805730000000     0.0208755  
C59      C      0.370390000000     0.132060000000     0.717800000000     0.0228382  
C60      C      0.391960000000     0.123890000000     0.698840000000    -0.0641655  
C61      C      0.390810000000     0.125070000000     0.664840000000     0.0208568  
C62      C      0.368050000000     0.134390000000     0.649370000000    -0.0982578  
C63      C      0.346000000000     0.141520000000     0.668370000000     0.0223957  
C64      C      0.347110000000     0.140290000000     0.702120000000    -0.0645764  
C65      C      0.181420000000     0.334370000000     0.202120000000    -0.0646194  
C66      C      0.158130000000     0.342580000000     0.217800000000     0.022854   
C67      C      0.136560000000     0.350750000000     0.198840000000    -0.0642016  
C68      C      0.137710000000     0.349570000000     0.164840000000     0.0208817  
C69      C      0.160480000000     0.340260000000     0.149370000000    -0.0983359  
C70      C      0.182530000000     0.333150000000     0.168370000000     0.0224613  
C71      C      0.156280000000     0.341580000000     0.253810000000     0.0227747  
C72      C      0.162400000000     0.317530000000     0.270610000000    -0.0645073  
C73      C      0.163130000000     0.317270000000     0.304420000000     0.0223081  
C74      C      0.157580000000     0.340970000000     0.322340000000    -0.0980038  
C75      C      0.150230000000     0.364510000000     0.305740000000     0.0207988  
C76      C      0.149570000000     0.364800000000     0.271690000000    -0.064075   
C77      C      0.055680000000     0.240450000000     0.466900000000    -0.0645236  
C78      C      0.033930000000     0.253100000000     0.479530000000     0.0227119  
C79      C      0.039710000000     0.284630000000     0.479950000000    -0.0641265  
C80      C      0.066680000000     0.303020000000     0.468160000000     0.0207746  
C81      C      0.088430000000     0.290270000000     0.455780000000    -0.0988311  
C82      C      0.082590000000     0.258800000000     0.455210000000     0.0218225  
C83      C      0.005510000000     0.233440000000     0.492510000000     0.022128   
C84      C      0.490610000000     0.206690000000     0.476440000000    -0.064191   
C85      C      0.463840000000     0.188300000000     0.488650000000     0.021153   
C86      C      0.451440000000     0.196230000000     0.517230000000    -0.0993309  
C87      C      0.466490000000     0.222760000000     0.533500000000     0.0216473  
C88      C      0.493180000000     0.241150000000     0.521280000000    -0.0645037  
C89      C      0.264090000000     0.032160000000     0.507170000000    -0.064484   
C90      C      0.276050000000     0.510720000000     0.492320000000     0.0225069  
C91      C      0.307180000000     0.516790000000     0.489860000000    -0.0638717  
C92      C      0.325860000000     0.043740000000     0.501800000000     0.0206816  
C93      C      0.313780000000     0.065190000000     0.516390000000    -0.0986746  
C94      C      0.282720000000     0.059050000000     0.519030000000     0.0218182  
C95      C      0.256080000000     0.482320000000     0.479190000000     0.022612   
C96      C      0.230490000000     0.466610000000     0.496330000000    -0.0641499  
C97      C      0.211920000000     0.439770000000     0.484080000000     0.0210734  
C98      C      0.218520000000     0.428090000000     0.454400000000    -0.0992374  
C99      C      0.243820000000     0.443980000000     0.437030000000     0.0215907  
C100     C      0.262380000000     0.470760000000     0.449280000000    -0.0644089  
C101     C      0.249100000000     0.272190000000     0.500910000000    -0.0642096  
C102     C      0.270730000000     0.266290000000     0.480160000000     0.0229287  
C103     C      0.273270000000     0.277730000000     0.448340000000    -0.0642208  
C104     C      0.254190000000     0.294130000000     0.437300000000     0.021959   
C105     C      0.232290000000     0.299530000000     0.457900000000    -0.0972035  
C106     C      0.230130000000     0.288720000000     0.489910000000     0.0218968  
C107     C      0.289820000000     0.247400000000     0.491370000000     0.0230081  
C108     C      0.301060000000     0.250090000000     0.523220000000    -0.064325   
C109     C      0.317620000000     0.231140000000     0.534290000000     0.022161   
C110     C      0.323410000000     0.209230000000     0.513690000000    -0.0973975  
C111     C      0.312820000000     0.206950000000     0.481630000000     0.0219179  
C112     C      0.296120000000     0.225790000000     0.470600000000    -0.0642426  
C113     C      0.200240000000     0.898680000000     0.442310000000     0.357717   
C114     C      0.117330000000     0.809310000000     0.443850000000     0.357183   
C115     C      0.161090000000     0.841430000000     0.358000000000     0.355727   
C116     C      0.211170000000     0.815480000000     0.445710000000     0.35646    
C117     C      0.422300000000     0.677930000000     0.529340000000     0.35795    
C118     C      0.333110000000     0.594160000000     0.528350000000     0.356935   
C119     C      0.367570000000     0.638130000000     0.613760000000     0.356244   
C120     C      0.339510000000     0.688190000000     0.525960000000     0.356984   
C121     C      0.328270000000     0.575920000000     0.942310000000     0.357963   
C122     C      0.411180000000     0.665300000000     0.943860000000     0.356681   
C123     C      0.367410000000     0.633180000000     0.858000000000     0.35538    
C124     C      0.317330000000     0.659120000000     0.945710000000     0.356267   
C125     C      0.106220000000     0.796700000000     0.029340000000     0.358029   
C126     C      0.195410000000     0.880470000000     0.028350000000     0.35714    
C127     C      0.160960000000     0.836520000000     0.113760000000     0.356293   
C128     C      0.189000000000     0.786440000000     0.025960000000     0.356785   
C129     C      0.988810000000     0.689990000000     0.979940000000    -0.0637553  
C130     C      0.994580000000     0.721510000000     0.979530000000     0.022647   
C131     C      0.472820000000     0.734160000000     0.966920000000    -0.0643747  
C132     C      0.445910000000     0.715810000000     0.955230000000     0.0216858  
C133     C      0.440080000000     0.684340000000     0.955790000000    -0.0986401  
C134     C      0.461830000000     0.671590000000     0.968150000000     0.0206204  
C135     C      0.023000000000     0.741180000000     0.992510000000     0.0224539  
C136     C      0.035350000000     0.733470000000     0.021270000000    -0.0644044  
C137     C      0.062040000000     0.751860000000     0.033490000000     0.0215876  
C138     C      0.077070000000     0.778390000000     0.017230000000    -0.0992638  
C139     C      0.064660000000     0.786330000000     0.988660000000     0.0210407  
C140     C      0.037900000000     0.767930000000     0.976440000000    -0.0641376  
C141     C      0.266130000000     0.503840000000     0.949270000000    -0.0645252  
C142     C      0.272440000000     0.492290000000     0.979180000000     0.0226668  
C143     C      0.298030000000     0.508010000000     0.996330000000    -0.0642346  
C144     C      0.316600000000     0.534850000000     0.984070000000     0.0212028  
C145     C      0.310000000000     0.546520000000     0.954390000000    -0.099454   
C146     C      0.284690000000     0.530610000000     0.937020000000     0.0216886  
C147     C      0.252470000000     0.963890000000     0.992310000000     0.0227122  
C148     C      0.221340000000     0.957820000000     0.989840000000    -0.0639982  
C149     C      0.202660000000     0.930880000000     0.001790000000     0.0206722  
C150     C      0.214740000000     0.909430000000     0.016380000000    -0.0986904  
C151     C      0.245800000000     0.915580000000     0.019030000000     0.0218262  
C152     C      0.264430000000     0.942460000000     0.007170000000    -0.0645367  
C153     C      0.227450000000     0.724530000000     0.023220000000    -0.0642864  
C154     C      0.238680000000     0.727220000000     0.991370000000     0.0230402  
C155     C      0.232380000000     0.748810000000     0.970600000000    -0.0642757  
C156     C      0.215680000000     0.767660000000     0.981630000000     0.0218896  
C157     C      0.205100000000     0.765400000000     0.013690000000    -0.0972731  
C158     C      0.210890000000     0.743490000000     0.034300000000     0.0220358  
C159     C      0.257780000000     0.708320000000     0.980160000000     0.022876   
C160     C      0.279410000000     0.702420000000     0.000900000000    -0.0640818  
C161     C      0.298380000000     0.685900000000     0.989910000000     0.0217969  
C162     C      0.296210000000     0.675070000000     0.957900000000    -0.0970874  
C163     C      0.274300000000     0.680460000000     0.937300000000     0.0218815  
C164     C      0.255220000000     0.696860000000     0.948340000000    -0.0642249  
C165     C      0.378930000000     0.609820000000     0.771680000000    -0.0641128  
C166     C      0.372230000000     0.633050000000     0.753810000000     0.0227587  
C167     C      0.366120000000     0.657100000000     0.770630000000    -0.0644502  
C168     C      0.365380000000     0.657350000000     0.804440000000     0.0222709  
C169     C      0.370920000000     0.633640000000     0.822340000000    -0.0979284  
C170     C      0.378260000000     0.610110000000     0.805730000000     0.0208689  
C171     C      0.370390000000     0.632060000000     0.717800000000     0.0228472  
C172     C      0.391960000000     0.623890000000     0.698840000000    -0.0641821  
C173     C      0.390810000000     0.625070000000     0.664840000000     0.0208662  
C174     C      0.368050000000     0.634390000000     0.649370000000    -0.0982962  
C175     C      0.346000000000     0.641510000000     0.668370000000     0.0224438  
C176     C      0.347110000000     0.640290000000     0.702120000000    -0.0646111  
C177     C      0.181420000000     0.834370000000     0.202120000000    -0.0646189  
C178     C      0.158130000000     0.842580000000     0.217800000000     0.0228403  
C179     C      0.136560000000     0.850750000000     0.198840000000    -0.0642017  
C180     C      0.137710000000     0.849570000000     0.164840000000     0.0208751  
C181     C      0.160480000000     0.840260000000     0.149370000000    -0.0983396  
C182     C      0.182530000000     0.833150000000     0.168370000000     0.0224558  
C183     C      0.156280000000     0.841580000000     0.253810000000     0.0227953  
C184     C      0.162400000000     0.817530000000     0.270610000000    -0.0645325  
C185     C      0.163130000000     0.817270000000     0.304420000000     0.0223336  
C186     C      0.157580000000     0.840970000000     0.322340000000    -0.0980658  
C187     C      0.150230000000     0.864500000000     0.305740000000     0.0208854  
C188     C      0.149570000000     0.864800000000     0.271690000000    -0.0641327  
C189     C      0.055680000000     0.740450000000     0.466900000000    -0.0645275  
C190     C      0.033930000000     0.753100000000     0.479530000000     0.0227119  
C191     C      0.039710000000     0.784630000000     0.479950000000    -0.0641311  
C192     C      0.066680000000     0.803020000000     0.468160000000     0.0207728  
C193     C      0.088430000000     0.790270000000     0.455780000000    -0.0988359  
C194     C      0.082590000000     0.758800000000     0.455210000000     0.0218213  
C195     C      0.005510000000     0.733440000000     0.492510000000     0.0221189  
C196     C      0.490610000000     0.706690000000     0.476440000000    -0.0641947  
C197     C      0.463840000000     0.688300000000     0.488650000000     0.02115    
C198     C      0.451440000000     0.696230000000     0.517230000000    -0.0993357  
C199     C      0.466490000000     0.722760000000     0.533500000000     0.0216471  
C200     C      0.493180000000     0.741150000000     0.521280000000    -0.0645078  
C201     C      0.264090000000     0.532160000000     0.507170000000    -0.0643905  
C202     C      0.276050000000     0.010720000000     0.492320000000     0.0227505  
C203     C      0.307180000000     0.016790000000     0.489860000000    -0.063961   
C204     C      0.325860000000     0.543740000000     0.501800000000     0.0205806  
C205     C      0.313780000000     0.565190000000     0.516390000000    -0.0985552  
C206     C      0.282720000000     0.559050000000     0.519030000000     0.0217138  
C207     C      0.256080000000     0.982320000000     0.479190000000     0.0223788  
C208     C      0.230490000000     0.966610000000     0.496330000000    -0.0640819  
C209     C      0.211920000000     0.939770000000     0.484080000000     0.0210177  
C210     C      0.218520000000     0.928090000000     0.454400000000    -0.0992145  
C211     C      0.243820000000     0.943980000000     0.437030000000     0.0215349  
C212     C      0.262380000000     0.970760000000     0.449280000000    -0.0643409  
C213     C      0.249100000000     0.772190000000     0.500910000000    -0.0642177  
C214     C      0.270730000000     0.766290000000     0.480160000000     0.0229346  
C215     C      0.273270000000     0.777730000000     0.448340000000    -0.0642511  
C216     C      0.254190000000     0.794130000000     0.437300000000     0.0219667  
C217     C      0.232290000000     0.799530000000     0.457900000000    -0.0972129  
C218     C      0.230130000000     0.788720000000     0.489910000000     0.0218982  
C219     C      0.289820000000     0.747400000000     0.491370000000     0.0230149  
C220     C      0.301060000000     0.750090000000     0.523220000000    -0.0643399  
C221     C      0.317620000000     0.731140000000     0.534290000000     0.022177   
C222     C      0.323410000000     0.709220000000     0.513690000000    -0.0974816  
C223     C      0.312820000000     0.706950000000     0.481630000000     0.0219667  
C224     C      0.296120000000     0.725790000000     0.470600000000    -0.0642693  
C225     C      0.700240000000     0.398680000000     0.442310000000     0.357732   
C226     C      0.617330000000     0.309310000000     0.443850000000     0.357168   
C227     C      0.661090000000     0.341430000000     0.358000000000     0.355709   
C228     C      0.711170000000     0.315480000000     0.445710000000     0.356464   
C229     C      0.922300000000     0.177930000000     0.529340000000     0.357809   
C230     C      0.833110000000     0.094160000000     0.528350000000     0.357227   
C231     C      0.867560000000     0.138130000000     0.613760000000     0.35624    
C232     C      0.839510000000     0.188190000000     0.525960000000     0.356894   
C233     C      0.828270000000     0.075920000000     0.942310000000     0.357886   
C234     C      0.911180000000     0.165300000000     0.943860000000     0.356834   
C235     C      0.867410000000     0.133180000000     0.858000000000     0.35538    
C236     C      0.817330000000     0.159120000000     0.945710000000     0.356262   
C237     C      0.606220000000     0.296700000000     0.029340000000     0.358039   
C238     C      0.695410000000     0.380470000000     0.028350000000     0.357123   
C239     C      0.660960000000     0.336520000000     0.113760000000     0.356295   
C240     C      0.689000000000     0.286440000000     0.025960000000     0.356804   
C241     C      0.488810000000     0.189990000000     0.979940000000    -0.0639012  
C242     C      0.494580000000     0.221510000000     0.979530000000     0.0225083  
C243     C      0.972820000000     0.234160000000     0.966920000000    -0.0644253  
C244     C      0.945910000000     0.215810000000     0.955230000000     0.0217723  
C245     C      0.940070000000     0.184340000000     0.955790000000    -0.0987272  
C246     C      0.961830000000     0.171590000000     0.968150000000     0.0206076  
C247     C      0.523000000000     0.241180000000     0.992510000000     0.0226461  
C248     C      0.535340000000     0.233470000000     0.021270000000    -0.064464   
C249     C      0.562040000000     0.251860000000     0.033490000000     0.0216167  
C250     C      0.577070000000     0.278390000000     0.017230000000    -0.0992707  
C251     C      0.564660000000     0.286330000000     0.988660000000     0.0210855  
C252     C      0.537900000000     0.267930000000     0.976440000000    -0.0641866  
C253     C      0.766130000000     0.003840000000     0.949270000000    -0.0639016  
C254     C      0.772440000000     0.992290000000     0.979180000000     0.0220345  
C255     C      0.798030000000     0.008010000000     0.996330000000    -0.063598   
C256     C      0.816600000000     0.034850000000     0.984070000000     0.0208966  
C257     C      0.810000000000     0.046520000000     0.954390000000    -0.0992134  
C258     C      0.784690000000     0.030610000000     0.937020000000     0.0214171  
C259     C      0.752470000000     0.463890000000     0.992310000000     0.0225153  
C260     C      0.721340000000     0.457820000000     0.989840000000    -0.0638796  
C261     C      0.702660000000     0.430880000000     0.001790000000     0.0206246  
C262     C      0.714740000000     0.409430000000     0.016380000000    -0.0986266  
C263     C      0.745800000000     0.415580000000     0.019030000000     0.0217512  
C264     C      0.764430000000     0.442470000000     0.007170000000    -0.0644037  
C265     C      0.727450000000     0.224530000000     0.023220000000    -0.0643035  
C266     C      0.738680000000     0.227210000000     0.991370000000     0.0230146  
C267     C      0.732380000000     0.248820000000     0.970600000000    -0.0642643  
C268     C      0.715680000000     0.267660000000     0.981630000000     0.0219297  
C269     C      0.705100000000     0.265400000000     0.013690000000    -0.0973157  
C270     C      0.710890000000     0.243490000000     0.034290000000     0.0221138  
C271     C      0.757780000000     0.208320000000     0.980160000000     0.0228819  
C272     C      0.779410000000     0.202420000000     0.000900000000    -0.0640579  
C273     C      0.798380000000     0.185890000000     0.989910000000     0.0217813  
C274     C      0.796210000000     0.175070000000     0.957900000000    -0.0970694  
C275     C      0.774300000000     0.180460000000     0.937300000000     0.0218828  
C276     C      0.755220000000     0.196860000000     0.948340000000    -0.0642168  
C277     C      0.878930000000     0.109820000000     0.771680000000    -0.0641099  
C278     C      0.872240000000     0.133050000000     0.753810000000     0.0227723  
C279     C      0.866120000000     0.157100000000     0.770630000000    -0.0644414  
C280     C      0.865380000000     0.157350000000     0.804440000000     0.0222758  
C281     C      0.870920000000     0.133640000000     0.822340000000    -0.0979191  
C282     C      0.878260000000     0.110110000000     0.805730000000     0.0208806  
C283     C      0.870390000000     0.132060000000     0.717800000000     0.0228406  
C284     C      0.891960000000     0.123890000000     0.698840000000    -0.0641628  
C285     C      0.890810000000     0.125070000000     0.664840000000     0.0208669  
C286     C      0.868050000000     0.134390000000     0.649370000000    -0.0982459  
C287     C      0.846000000000     0.141520000000     0.668370000000     0.0223851  
C288     C      0.847110000000     0.140290000000     0.702120000000    -0.0645675  
C289     C      0.681420000000     0.334370000000     0.202120000000    -0.0646167  
C290     C      0.658130000000     0.342580000000     0.217800000000     0.0228574  
C291     C      0.636560000000     0.350750000000     0.198840000000    -0.0641969  
C292     C      0.637710000000     0.349570000000     0.164840000000     0.0208854  
C293     C      0.660480000000     0.340260000000     0.149370000000    -0.0983311  
C294     C      0.682530000000     0.333150000000     0.168370000000     0.0224633  
C295     C      0.656280000000     0.341580000000     0.253810000000     0.0227784  
C296     C      0.662400000000     0.317530000000     0.270610000000    -0.0645034  
C297     C      0.663130000000     0.317270000000     0.304420000000     0.0223112  
C298     C      0.657580000000     0.340970000000     0.322340000000    -0.0979985  
C299     C      0.650230000000     0.364510000000     0.305740000000     0.0208026  
C300     C      0.649570000000     0.364800000000     0.271690000000    -0.0640706  
C301     C      0.555680000000     0.240450000000     0.466900000000    -0.0644078  
C302     C      0.533930000000     0.253100000000     0.479530000000     0.0225205  
C303     C      0.539710000000     0.284630000000     0.479950000000    -0.0639634  
C304     C      0.566680000000     0.303020000000     0.468160000000     0.0207094  
C305     C      0.588430000000     0.290270000000     0.455780000000    -0.0987759  
C306     C      0.582590000000     0.258800000000     0.455210000000     0.0217727  
C307     C      0.505510000000     0.233440000000     0.492510000000     0.0226638  
C308     C      0.990610000000     0.206690000000     0.476440000000    -0.0637958  
C309     C      0.963840000000     0.188300000000     0.488650000000     0.0209236  
C310     C      0.951450000000     0.196230000000     0.517230000000    -0.0990624  
C311     C      0.966490000000     0.222760000000     0.533500000000     0.0213679  
C312     C      0.993180000000     0.241150000000     0.521280000000    -0.0639337  
C313     C      0.764090000000     0.032160000000     0.507170000000    -0.0644826  
C314     C      0.776050000000     0.510720000000     0.492320000000     0.0225289  
C315     C      0.807180000000     0.516790000000     0.489860000000    -0.0638944  
C316     C      0.825860000000     0.043740000000     0.501800000000     0.0206843  
C317     C      0.813780000000     0.065190000000     0.516390000000    -0.0986715  
C318     C      0.782720000000     0.059050000000     0.519030000000     0.0218202  
C319     C      0.756080000000     0.482320000000     0.479190000000     0.0226065  
C320     C      0.730490000000     0.466610000000     0.496330000000    -0.0641434  
C321     C      0.711920000000     0.439770000000     0.484080000000     0.0210738  
C322     C      0.718520000000     0.428090000000     0.454400000000    -0.0992324  
C323     C      0.743820000000     0.443980000000     0.437030000000     0.0215907  
C324     C      0.762380000000     0.470760000000     0.449280000000    -0.0644028  
C325     C      0.749100000000     0.272190000000     0.500910000000    -0.0642207  
C326     C      0.770730000000     0.266290000000     0.480160000000     0.022957   
C327     C      0.773270000000     0.277730000000     0.448340000000    -0.064268   
C328     C      0.754190000000     0.294130000000     0.437300000000     0.0219868  
C329     C      0.732290000000     0.299530000000     0.457900000000    -0.0972129  
C330     C      0.730130000000     0.288720000000     0.489910000000     0.0219093  
C331     C      0.789820000000     0.247400000000     0.491370000000     0.0229793  
C332     C      0.801060000000     0.250090000000     0.523220000000    -0.0643074  
C333     C      0.817620000000     0.231140000000     0.534290000000     0.0221581  
C334     C      0.823410000000     0.209230000000     0.513690000000    -0.0973932  
C335     C      0.812820000000     0.206950000000     0.481630000000     0.0219283  
C336     C      0.796130000000     0.225790000000     0.470600000000    -0.0642152  
C337     C      0.700240000000     0.898680000000     0.442310000000     0.357708   
C338     C      0.617330000000     0.809310000000     0.443850000000     0.357168   
C339     C      0.661090000000     0.841430000000     0.358000000000     0.355729   
C340     C      0.711170000000     0.815480000000     0.445710000000     0.356465   
C341     C      0.922300000000     0.677930000000     0.529340000000     0.357704   
C342     C      0.833110000000     0.594160000000     0.528350000000     0.357209   
C343     C      0.867560000000     0.638130000000     0.613760000000     0.356253   
C344     C      0.839510000000     0.688190000000     0.525960000000     0.356985   
C345     C      0.828270000000     0.575920000000     0.942310000000     0.357967   
C346     C      0.911180000000     0.665300000000     0.943860000000     0.356747   
C347     C      0.867410000000     0.633180000000     0.858000000000     0.355381   
C348     C      0.817330000000     0.659120000000     0.945710000000     0.356263   
C349     C      0.606220000000     0.796700000000     0.029340000000     0.358038   
C350     C      0.695410000000     0.880470000000     0.028350000000     0.357146   
C351     C      0.660960000000     0.836520000000     0.113760000000     0.356293   
C352     C      0.689000000000     0.786440000000     0.025960000000     0.356804   
C353     C      0.488810000000     0.689990000000     0.979940000000    -0.0639053  
C354     C      0.494580000000     0.721510000000     0.979530000000     0.0225058  
C355     C      0.972820000000     0.734160000000     0.966920000000    -0.0644192  
C356     C      0.945910000000     0.715810000000     0.955230000000     0.0217533  
C357     C      0.940070000000     0.684340000000     0.955790000000    -0.0986994  
C358     C      0.961830000000     0.671590000000     0.968150000000     0.0205899  
C359     C      0.523000000000     0.741180000000     0.992510000000     0.0226432  
C360     C      0.535340000000     0.733470000000     0.021270000000    -0.0644667  
C361     C      0.562040000000     0.751860000000     0.033490000000     0.0216144  
C362     C      0.577070000000     0.778390000000     0.017230000000    -0.0992747  
C363     C      0.564660000000     0.786330000000     0.988660000000     0.0210829  
C364     C      0.537900000000     0.767930000000     0.976440000000    -0.0641898  
C365     C      0.766130000000     0.503840000000     0.949270000000    -0.0645341  
C366     C      0.772440000000     0.492290000000     0.979180000000     0.0226742  
C367     C      0.798030000000     0.508010000000     0.996330000000    -0.0642351  
C368     C      0.816600000000     0.534850000000     0.984070000000     0.0212093  
C369     C      0.810000000000     0.546520000000     0.954390000000    -0.0994572  
C370     C      0.784690000000     0.530610000000     0.937020000000     0.021711   
C371     C      0.752470000000     0.963890000000     0.992310000000     0.0227243  
C372     C      0.721340000000     0.957820000000     0.989840000000    -0.0640157  
C373     C      0.702660000000     0.930880000000     0.001790000000     0.0207145  
C374     C      0.714740000000     0.909430000000     0.016380000000    -0.0987051  
C375     C      0.745800000000     0.915580000000     0.019030000000     0.0218374  
C376     C      0.764430000000     0.942460000000     0.007170000000    -0.0645424  
C377     C      0.727450000000     0.724530000000     0.023220000000    -0.0643368  
C378     C      0.738680000000     0.727220000000     0.991370000000     0.0230697  
C379     C      0.732380000000     0.748810000000     0.970600000000    -0.0642949  
C380     C      0.715680000000     0.767660000000     0.981630000000     0.0219174  
C381     C      0.705100000000     0.765400000000     0.013690000000    -0.0973203  
C382     C      0.710890000000     0.743490000000     0.034290000000     0.022122   
C383     C      0.757780000000     0.708320000000     0.980160000000     0.0228606  
C384     C      0.779410000000     0.702420000000     0.000900000000    -0.0640543  
C385     C      0.798380000000     0.685890000000     0.989910000000     0.0217744  
C386     C      0.796210000000     0.675070000000     0.957900000000    -0.0970733  
C387     C      0.774300000000     0.680460000000     0.937300000000     0.0218762  
C388     C      0.755220000000     0.696860000000     0.948340000000    -0.0642123  
C389     C      0.878930000000     0.609820000000     0.771680000000    -0.0641126  
C390     C      0.872240000000     0.633050000000     0.753810000000     0.0227628  
C391     C      0.866120000000     0.657100000000     0.770630000000    -0.0644413  
C392     C      0.865380000000     0.657350000000     0.804440000000     0.0222725  
C393     C      0.870920000000     0.633640000000     0.822340000000    -0.0979222  
C394     C      0.878260000000     0.610110000000     0.805730000000     0.0208748  
C395     C      0.870390000000     0.632060000000     0.717800000000     0.0228507  
C396     C      0.891960000000     0.623890000000     0.698840000000    -0.0641801  
C397     C      0.890810000000     0.625070000000     0.664840000000     0.0208775  
C398     C      0.868050000000     0.634390000000     0.649370000000    -0.0982857  
C399     C      0.846000000000     0.641510000000     0.668370000000     0.0224345  
C400     C      0.847110000000     0.640290000000     0.702120000000    -0.064603   
C401     C      0.681420000000     0.834370000000     0.202120000000    -0.0646163  
C402     C      0.658130000000     0.842580000000     0.217800000000     0.0228437  
C403     C      0.636560000000     0.850750000000     0.198840000000    -0.064197   
C404     C      0.637710000000     0.849570000000     0.164840000000     0.0208788  
C405     C      0.660480000000     0.840260000000     0.149370000000    -0.0983348  
C406     C      0.682530000000     0.833150000000     0.168370000000     0.0224577  
C407     C      0.656280000000     0.841580000000     0.253810000000     0.0227991  
C408     C      0.662400000000     0.817530000000     0.270610000000    -0.0645285  
C409     C      0.663130000000     0.817270000000     0.304420000000     0.0223367  
C410     C      0.657580000000     0.840970000000     0.322340000000    -0.0980606  
C411     C      0.650230000000     0.864500000000     0.305740000000     0.0208892  
C412     C      0.649570000000     0.864800000000     0.271690000000    -0.0641283  
C413     C      0.555680000000     0.740450000000     0.466900000000    -0.0644103  
C414     C      0.533930000000     0.753100000000     0.479530000000     0.0225178  
C415     C      0.539710000000     0.784630000000     0.479950000000    -0.0639669  
C416     C      0.566680000000     0.803020000000     0.468160000000     0.0207068  
C417     C      0.588430000000     0.790270000000     0.455780000000    -0.0987803  
C418     C      0.582590000000     0.758800000000     0.455210000000     0.0217708  
C419     C      0.505510000000     0.733440000000     0.492510000000     0.0226615  
C420     C      0.990610000000     0.706690000000     0.476440000000    -0.0637906  
C421     C      0.963840000000     0.688300000000     0.488650000000     0.0209038  
C422     C      0.951450000000     0.696230000000     0.517230000000    -0.0990292  
C423     C      0.966490000000     0.722760000000     0.533500000000     0.0213464  
C424     C      0.993180000000     0.741150000000     0.521280000000    -0.0639275  
C425     C      0.764090000000     0.532160000000     0.507170000000    -0.0644164  
C426     C      0.776050000000     0.010720000000     0.492320000000     0.022755   
C427     C      0.807180000000     0.016790000000     0.489860000000    -0.0639586  
C428     C      0.825860000000     0.543740000000     0.501800000000     0.0206311  
C429     C      0.813780000000     0.565190000000     0.516390000000    -0.0986574  
C430     C      0.782720000000     0.559050000000     0.519030000000     0.0217699  
C431     C      0.756080000000     0.982320000000     0.479190000000     0.022379   
C432     C      0.730490000000     0.966610000000     0.496340000000    -0.0640922  
C433     C      0.711910000000     0.939770000000     0.484080000000     0.020975   
C434     C      0.718520000000     0.928090000000     0.454400000000    -0.0991831  
C435     C      0.743820000000     0.943980000000     0.437030000000     0.0215263  
C436     C      0.762380000000     0.970760000000     0.449280000000    -0.0643326  
C437     C      0.749100000000     0.772190000000     0.500910000000    -0.0642251  
C438     C      0.770730000000     0.766290000000     0.480160000000     0.0229559  
C439     C      0.773270000000     0.777730000000     0.448340000000    -0.0642945  
C440     C      0.754190000000     0.794130000000     0.437300000000     0.0219927  
C441     C      0.732290000000     0.799530000000     0.457900000000    -0.0972208  
C442     C      0.730130000000     0.788720000000     0.489910000000     0.021909   
C443     C      0.789820000000     0.747400000000     0.491370000000     0.0230083  
C444     C      0.801060000000     0.750090000000     0.523220000000    -0.0643324  
C445     C      0.817620000000     0.731140000000     0.534290000000     0.0221778  
C446     C      0.823410000000     0.709220000000     0.513690000000    -0.0974756  
C447     C      0.812820000000     0.706950000000     0.481630000000     0.0219668  
C448     C      0.796120000000     0.725790000000     0.470600000000    -0.0642629  
H1       H      0.476340000000     0.258290000000     0.966620000000     0.0483742  
H2       H      0.429570000000     0.226350000000     0.945930000000     0.0414793  
H3       H      0.457990000000     0.147420000000     0.968830000000     0.0397625  
H4       H      0.005250000000     0.179520000000     0.989140000000     0.0479556  
H5       H      0.024240000000     0.213310000000     0.034540000000     0.0483202  
H6       H      0.071030000000     0.245120000000     0.055580000000     0.0406757  
H7       H      0.075820000000     0.306530000000     0.975490000000     0.0401714  
H8       H      0.029150000000     0.274400000000     0.954070000000     0.0480903  
H9       H      0.303400000000     0.499890000000     0.019590000000     0.0481208  
H10      H      0.335830000000     0.046690000000     0.998110000000     0.0401616  
H11      H      0.278990000000     0.039020000000     0.914050000000     0.0407397  
H12      H      0.246910000000     0.992080000000     0.935170000000     0.0481189  
H13      H      0.211370000000     0.474020000000     0.978910000000     0.0480756  
H14      H      0.178820000000     0.426800000000     0.999460000000     0.0399237  
H15      H      0.255830000000     0.399470000000     0.030070000000     0.0413224  
H16      H      0.288260000000     0.446200000000     0.009110000000     0.0483555  
H17      H      0.241020000000     0.251750000000     0.946060000000     0.0485744  
H18      H      0.211620000000     0.284430000000     0.965250000000     0.0405126  
H19      H      0.202840000000     0.241130000000     0.059090000000     0.0423241  
H20      H      0.231510000000     0.207810000000     0.039660000000     0.0482957  
H21      H      0.282250000000     0.211270000000     0.025410000000     0.0485401  
H22      H      0.315140000000     0.182140000000     0.006280000000     0.0408069  
H23      H      0.272030000000     0.172220000000     0.912550000000     0.0421896  
H24      H      0.238500000000     0.200600000000     0.931920000000     0.048272   
H25      H      0.361560000000     0.175700000000     0.757600000000     0.0489939  
H26      H      0.359980000000     0.175980000000     0.816530000000     0.0426289  
H27      H      0.382660000000     0.091550000000     0.818970000000     0.0391043  
H28      H      0.383680000000     0.090970000000     0.759380000000     0.0481373  
H29      H      0.410180000000     0.117490000000     0.710260000000     0.0480934  
H30      H      0.408080000000     0.119420000000     0.650750000000     0.0389124  
H31      H      0.327990000000     0.148480000000     0.657170000000     0.0428793  
H32      H      0.329760000000     0.146030000000     0.716000000000     0.0491141  
H33      H      0.118330000000     0.357130000000     0.210260000000     0.0480836  
H34      H      0.120430000000     0.355210000000     0.150750000000     0.0388773  
H35      H      0.200540000000     0.326190000000     0.157180000000     0.0428579  
H36      H      0.198770000000     0.328630000000     0.216000000000     0.0491236  
H37      H      0.166970000000     0.298940000000     0.257580000000     0.049022   
H38      H      0.168540000000     0.298650000000     0.316510000000     0.0426224  
H39      H      0.145830000000     0.383050000000     0.318990000000     0.039102   
H40      H      0.144810000000     0.383650000000     0.259400000000     0.0481034  
H41      H      0.023280000000     0.295090000000     0.489160000000     0.0481313  
H42      H      0.070520000000     0.327190000000     0.468850000000     0.0396982  
H43      H      0.098930000000     0.248260000000     0.445890000000     0.0414457  
H44      H      0.052160000000     0.216320000000     0.466590000000     0.0483902  
H45      H      0.999340000000     0.200220000000     0.454050000000     0.0481012  
H46      H      0.452680000000     0.168090000000     0.475470000000     0.0401719  
H47      H      0.457510000000     0.229510000000     0.555590000000     0.0406687  
H48      H      0.504290000000     0.261310000000     0.534550000000     0.0483812  
H49      H      0.317140000000     0.500590000000     0.478920000000     0.0480895  
H50      H      0.349700000000     0.047820000000     0.499480000000     0.0399451  
H51      H      0.272690000000     0.075160000000     0.530070000000     0.0413153  
H52      H      0.240260000000     0.028420000000     0.509110000000     0.0484195  
H53      H      0.225110000000     0.474730000000     0.519590000000     0.0480832  
H54      H      0.192680000000     0.427930000000     0.498110000000     0.0400839  
H55      H      0.249520000000     0.435570000000     0.414060000000     0.0406716  
H56      H      0.281610000000     0.482520000000     0.435180000000     0.0483223  
H57      H      0.289990000000     0.273980000000     0.431910000000     0.0482503  
H58      H      0.256460000000     0.302360000000     0.412540000000     0.0421648  
H59      H      0.213370000000     0.292480000000     0.506280000000     0.0407608  
H60      H      0.246270000000     0.263360000000     0.525410000000     0.0485976  
H61      H      0.297010000000     0.266820000000     0.539660000000     0.0483017  
H62      H      0.325680000000     0.233510000000     0.559090000000     0.0422764  
H63      H      0.316880000000     0.190180000000     0.465260000000     0.0405119  
H64      H      0.287470000000     0.222850000000     0.446060000000     0.0485732  
H65      H      0.476340000000     0.758290000000     0.966620000000     0.0483682  
H66      H      0.429570000000     0.726350000000     0.945930000000     0.0414738  
H67      H      0.457990000000     0.647420000000     0.968830000000     0.0397519  
H68      H      0.005250000000     0.679520000000     0.989140000000     0.0479462  
H69      H      0.024240000000     0.713310000000     0.034540000000     0.0483139  
H70      H      0.071030000000     0.745120000000     0.055580000000     0.0406703  
H71      H      0.075820000000     0.806530000000     0.975490000000     0.040164   
H72      H      0.029150000000     0.774400000000     0.954070000000     0.0480851  
H73      H      0.303400000000     0.999890000000     0.019590000000     0.0478637  
H74      H      0.335840000000     0.546690000000     0.998110000000     0.0400546  
H75      H      0.279000000000     0.539020000000     0.914050000000     0.0406477  
H76      H      0.246910000000     0.492080000000     0.935170000000     0.0483713  
H77      H      0.211370000000     0.974020000000     0.978910000000     0.0480762  
H78      H      0.178820000000     0.926800000000     0.999460000000     0.0398949  
H79      H      0.255830000000     0.899470000000     0.030070000000     0.0412936  
H80      H      0.288260000000     0.946200000000     0.009110000000     0.0483714  
H81      H      0.241020000000     0.751750000000     0.946060000000     0.048575   
H82      H      0.211620000000     0.784430000000     0.965250000000     0.0405091  
H83      H      0.202840000000     0.741130000000     0.059090000000     0.0423163  
H84      H      0.231510000000     0.707810000000     0.039660000000     0.0482958  
H85      H      0.282250000000     0.711270000000     0.025410000000     0.0485363  
H86      H      0.315140000000     0.682140000000     0.006280000000     0.0407965  
H87      H      0.272030000000     0.672220000000     0.912550000000     0.0421833  
H88      H      0.238500000000     0.700600000000     0.931920000000     0.0482656  
H89      H      0.361560000000     0.675700000000     0.757600000000     0.0489895  
H90      H      0.359980000000     0.675980000000     0.816530000000     0.0426222  
H91      H      0.382660000000     0.591550000000     0.818970000000     0.0390903  
H92      H      0.383680000000     0.590970000000     0.759380000000     0.0481229  
H93      H      0.410180000000     0.617490000000     0.710260000000     0.0480869  
H94      H      0.408080000000     0.619420000000     0.650750000000     0.0388987  
H95      H      0.327990000000     0.648480000000     0.657170000000     0.0428612  
H96      H      0.329760000000     0.646030000000     0.716000000000     0.0491154  
H97      H      0.118330000000     0.857130000000     0.210260000000     0.0480735  
H98      H      0.120430000000     0.855210000000     0.150750000000     0.0388689  
H99      H      0.200540000000     0.826190000000     0.157180000000     0.0428527  
H100     H      0.198770000000     0.828630000000     0.216000000000     0.0491159  
H101     H      0.166970000000     0.798940000000     0.257580000000     0.049023   
H102     H      0.168540000000     0.798650000000     0.316510000000     0.0426109  
H103     H      0.145830000000     0.883050000000     0.318990000000     0.0390651  
H104     H      0.144810000000     0.883650000000     0.259400000000     0.0481037  
H105     H      0.023280000000     0.795090000000     0.489160000000     0.0481247  
H106     H      0.070520000000     0.827190000000     0.468850000000     0.0396888  
H107     H      0.098930000000     0.748260000000     0.445890000000     0.0414408  
H108     H      0.052160000000     0.716320000000     0.466590000000     0.0483844  
H109     H      0.999340000000     0.700220000000     0.454050000000     0.0480926  
H110     H      0.452680000000     0.668090000000     0.475470000000     0.0401636  
H111     H      0.457510000000     0.729510000000     0.555590000000     0.0406637  
H112     H      0.504290000000     0.761310000000     0.534550000000     0.0483753  
H113     H      0.317140000000     0.000590000000     0.478920000000     0.0481677  
H114     H      0.349700000000     0.547820000000     0.499480000000     0.0399511  
H115     H      0.272690000000     0.575160000000     0.530070000000     0.0413251  
H116     H      0.240260000000     0.528420000000     0.509110000000     0.0483482  
H117     H      0.225110000000     0.974730000000     0.519590000000     0.0480131  
H118     H      0.192680000000     0.927930000000     0.498110000000     0.0400798  
H119     H      0.249520000000     0.935570000000     0.414060000000     0.0406675  
H120     H      0.281610000000     0.982520000000     0.435180000000     0.0482504  
H121     H      0.289990000000     0.773990000000     0.431910000000     0.048259   
H122     H      0.256460000000     0.802360000000     0.412540000000     0.0421546  
H123     H      0.213370000000     0.792480000000     0.506280000000     0.040754   
H124     H      0.246270000000     0.763360000000     0.525410000000     0.0485937  
H125     H      0.297010000000     0.766820000000     0.539660000000     0.048298   
H126     H      0.325680000000     0.733510000000     0.559090000000     0.0422711  
H127     H      0.316880000000     0.690180000000     0.465260000000     0.0404987  
H128     H      0.287470000000     0.722850000000     0.446060000000     0.0485756  
H129     H      0.976340000000     0.258290000000     0.966620000000     0.0484331  
H130     H      0.929570000000     0.226350000000     0.945930000000     0.041473   
H131     H      0.957990000000     0.147420000000     0.968830000000     0.0397966  
H132     H      0.505250000000     0.179520000000     0.989140000000     0.0480827  
H133     H      0.524240000000     0.213310000000     0.034540000000     0.0483789  
H134     H      0.571030000000     0.245120000000     0.055580000000     0.0406825  
H135     H      0.575820000000     0.306530000000     0.975490000000     0.0401768  
H136     H      0.529150000000     0.274400000000     0.954070000000     0.0481514  
H137     H      0.803400000000     0.499890000000     0.019590000000     0.0481279  
H138     H      0.835830000000     0.046690000000     0.998110000000     0.040171   
H139     H      0.778990000000     0.039020000000     0.914050000000     0.0407455  
H140     H      0.746910000000     0.992080000000     0.935170000000     0.0481231  
H141     H      0.711370000000     0.474020000000     0.978910000000     0.048081   
H142     H      0.678820000000     0.426800000000     0.999460000000     0.0399318  
H143     H      0.755830000000     0.399470000000     0.030070000000     0.041327   
H144     H      0.788260000000     0.446200000000     0.009110000000     0.0483612  
H145     H      0.741020000000     0.251750000000     0.946060000000     0.0485842  
H146     H      0.711620000000     0.284430000000     0.965250000000     0.0405115  
H147     H      0.702840000000     0.241130000000     0.059090000000     0.0423076  
H148     H      0.731510000000     0.207810000000     0.039660000000     0.0483133  
H149     H      0.782250000000     0.211270000000     0.025410000000     0.0485442  
H150     H      0.815140000000     0.182140000000     0.006280000000     0.0408157  
H151     H      0.772030000000     0.172220000000     0.912550000000     0.0421948  
H152     H      0.738500000000     0.200600000000     0.931920000000     0.0482759  
H153     H      0.861560000000     0.175700000000     0.757600000000     0.049      
H154     H      0.859980000000     0.175980000000     0.816530000000     0.0426315  
H155     H      0.882660000000     0.091550000000     0.818970000000     0.0391119  
H156     H      0.883680000000     0.090970000000     0.759380000000     0.0481466  
H157     H      0.910180000000     0.117490000000     0.710260000000     0.048106   
H158     H      0.908080000000     0.119420000000     0.650750000000     0.0389256  
H159     H      0.827990000000     0.148480000000     0.657170000000     0.0428846  
H160     H      0.829760000000     0.146030000000     0.716000000000     0.0491172  
H161     H      0.618330000000     0.357130000000     0.210260000000     0.0480952  
H162     H      0.620430000000     0.355210000000     0.150750000000     0.0388885  
H163     H      0.700540000000     0.326190000000     0.157180000000     0.0428621  
H164     H      0.698770000000     0.328630000000     0.216000000000     0.0491276  
H165     H      0.666970000000     0.298940000000     0.257580000000     0.0490281  
H166     H      0.668540000000     0.298650000000     0.316510000000     0.0426282  
H167     H      0.645830000000     0.383050000000     0.318990000000     0.0391101  
H168     H      0.644810000000     0.383650000000     0.259400000000     0.0481111  
H169     H      0.523270000000     0.295090000000     0.489160000000     0.0481003  
H170     H      0.570520000000     0.327190000000     0.468850000000     0.0397319  
H171     H      0.598930000000     0.248260000000     0.445890000000     0.0414695  
H172     H      0.552160000000     0.216320000000     0.466590000000     0.048392   
H173     H      0.499340000000     0.200220000000     0.454050000000     0.0481465  
H174     H      0.952680000000     0.168090000000     0.475480000000     0.0402493  
H175     H      0.957510000000     0.229510000000     0.555590000000     0.0407641  
H176     H      0.004290000000     0.261310000000     0.534550000000     0.0481468  
H177     H      0.817140000000     0.500590000000     0.478920000000     0.0481022  
H178     H      0.849700000000     0.047820000000     0.499480000000     0.0399532  
H179     H      0.772690000000     0.075160000000     0.530070000000     0.0413191  
H180     H      0.740260000000     0.028420000000     0.509110000000     0.0484248  
H181     H      0.725110000000     0.474730000000     0.519590000000     0.0480875  
H182     H      0.692680000000     0.427930000000     0.498110000000     0.040091   
H183     H      0.749520000000     0.435570000000     0.414060000000     0.0406765  
H184     H      0.781610000000     0.482520000000     0.435180000000     0.0483264  
H185     H      0.789990000000     0.273980000000     0.431920000000     0.0482825  
H186     H      0.756460000000     0.302360000000     0.412540000000     0.0421635  
H187     H      0.713370000000     0.292480000000     0.506280000000     0.0407633  
H188     H      0.746270000000     0.263360000000     0.525410000000     0.0486057  
H189     H      0.797010000000     0.266820000000     0.539660000000     0.0483032  
H190     H      0.825680000000     0.233510000000     0.559090000000     0.0422839  
H191     H      0.816880000000     0.190180000000     0.465260000000     0.0405155  
H192     H      0.787470000000     0.222850000000     0.446060000000     0.0485634  
H193     H      0.976340000000     0.758290000000     0.966620000000     0.0484252  
H194     H      0.929570000000     0.726350000000     0.945930000000     0.0414728  
H195     H      0.957990000000     0.647420000000     0.968830000000     0.0397909  
H196     H      0.505250000000     0.679520000000     0.989140000000     0.048075   
H197     H      0.524240000000     0.713310000000     0.034540000000     0.0483724  
H198     H      0.571030000000     0.745120000000     0.055580000000     0.0406773  
H199     H      0.575820000000     0.806530000000     0.975490000000     0.0401692  
H200     H      0.529150000000     0.774400000000     0.954070000000     0.0481451  
H201     H      0.803400000000     0.999890000000     0.019590000000     0.047869   
H202     H      0.835840000000     0.546690000000     0.998110000000     0.040062   
H203     H      0.778990000000     0.539020000000     0.914050000000     0.0406421  
H204     H      0.746910000000     0.492080000000     0.935170000000     0.0483784  
H205     H      0.711370000000     0.974020000000     0.978910000000     0.0480868  
H206     H      0.678810000000     0.926800000000     0.999460000000     0.0398912  
H207     H      0.755830000000     0.899470000000     0.030070000000     0.0412957  
H208     H      0.788260000000     0.946200000000     0.009110000000     0.0483795  
H209     H      0.741020000000     0.751750000000     0.946060000000     0.0485853  
H210     H      0.711620000000     0.784430000000     0.965250000000     0.0405078  
H211     H      0.702840000000     0.741130000000     0.059090000000     0.0422995  
H212     H      0.731510000000     0.707810000000     0.039660000000     0.0483137  
H213     H      0.782250000000     0.711270000000     0.025410000000     0.0485354  
H214     H      0.815140000000     0.682140000000     0.006280000000     0.0408084  
H215     H      0.772030000000     0.672220000000     0.912550000000     0.0421893  
H216     H      0.738500000000     0.700600000000     0.931920000000     0.0482681  
H217     H      0.861560000000     0.675700000000     0.757600000000     0.0489953  
H218     H      0.859980000000     0.675980000000     0.816530000000     0.0426291  
H219     H      0.882660000000     0.591550000000     0.818970000000     0.039099   
H220     H      0.883680000000     0.590970000000     0.759380000000     0.0481322  
H221     H      0.910180000000     0.617490000000     0.710260000000     0.0481001  
H222     H      0.908080000000     0.619420000000     0.650750000000     0.0389114  
H223     H      0.827990000000     0.648480000000     0.657170000000     0.042866   
H224     H      0.829760000000     0.646030000000     0.716000000000     0.0491183  
H225     H      0.618330000000     0.857130000000     0.210260000000     0.0480851  
H226     H      0.620430000000     0.855210000000     0.150750000000     0.0388799  
H227     H      0.700540000000     0.826190000000     0.157180000000     0.0428569  
H228     H      0.698770000000     0.828630000000     0.216000000000     0.0491199  
H229     H      0.666970000000     0.798940000000     0.257580000000     0.049029   
H230     H      0.668540000000     0.798650000000     0.316510000000     0.0426166  
H231     H      0.645830000000     0.883050000000     0.318990000000     0.0390732  
H232     H      0.644810000000     0.883650000000     0.259400000000     0.0481113  
H233     H      0.523270000000     0.795090000000     0.489160000000     0.0480929  
H234     H      0.570520000000     0.827190000000     0.468850000000     0.0397225  
H235     H      0.598930000000     0.748260000000     0.445890000000     0.0414647  
H236     H      0.552160000000     0.716320000000     0.466590000000     0.0483859  
H237     H      0.499340000000     0.700220000000     0.454050000000     0.0481401  
H238     H      0.952680000000     0.668090000000     0.475480000000     0.0402461  
H239     H      0.957510000000     0.729510000000     0.555590000000     0.0407619  
H240     H      0.004290000000     0.761310000000     0.534550000000     0.0481388  
H241     H      0.817140000000     0.000590000000     0.478920000000     0.0481748  
H242     H      0.849700000000     0.547820000000     0.499480000000     0.0399443  
H243     H      0.772690000000     0.575160000000     0.530070000000     0.0413164  
H244     H      0.740260000000     0.528420000000     0.509110000000     0.04836    
H245     H      0.725110000000     0.974730000000     0.519590000000     0.0480406  
H246     H      0.692680000000     0.927930000000     0.498110000000     0.0400994  
H247     H      0.749520000000     0.935570000000     0.414060000000     0.0406747  
H248     H      0.781610000000     0.982520000000     0.435180000000     0.0482545  
H249     H      0.789990000000     0.773990000000     0.431920000000     0.04829    
H250     H      0.756460000000     0.802360000000     0.412540000000     0.0421538  
H251     H      0.713370000000     0.792480000000     0.506280000000     0.0407571  
H252     H      0.746270000000     0.763360000000     0.525410000000     0.0486008  
H253     H      0.797010000000     0.766820000000     0.539660000000     0.0483023  
H254     H      0.825680000000     0.733510000000     0.559090000000     0.0422792  
H255     H      0.816880000000     0.690180000000     0.465260000000     0.0405034  
H256     H      0.787470000000     0.722850000000     0.446060000000     0.0485787  
In1      In     0.171140000000     0.342460000000     0.422620000000     2.40574    
In2      In     0.366820000000     0.148300000000     0.549240000000     2.40657    
In3      In     0.357360000000     0.132140000000     0.922620000000     2.40554    
In4      In     0.161700000000     0.326330000000     0.049240000000     2.40673    
In5      In     0.171140000000     0.842460000000     0.422620000000     2.40573    
In6      In     0.366820000000     0.648310000000     0.549240000000     2.40669    
In7      In     0.357360000000     0.632140000000     0.922620000000     2.40553    
In8      In     0.161700000000     0.826330000000     0.049240000000     2.40673    
In9      In     0.671140000000     0.342460000000     0.422620000000     2.40574    
In10     In     0.866820000000     0.148300000000     0.549240000000     2.40657    
In11     In     0.857360000000     0.132140000000     0.922620000000     2.40551    
In12     In     0.661700000000     0.326330000000     0.049240000000     2.40674    
In13     In     0.671140000000     0.842460000000     0.422620000000     2.40574    
In14     In     0.866820000000     0.648310000000     0.549240000000     2.40676    
In15     In     0.857360000000     0.632140000000     0.922620000000     2.40554    
In16     In     0.661700000000     0.826330000000     0.049240000000     2.40674    
O1       O      0.191950000000     0.322030000000     0.463610000000    -0.4895     
O2       O      0.210270000000     0.322710000000     0.416280000000    -0.476741   
O3       O      0.124210000000     0.337710000000     0.443200000000    -0.48343    
O4       O      0.177910000000     0.382710000000     0.457330000000    -0.484816   
O5       O      0.172030000000     0.322930000000     0.372420000000    -0.486462   
O6       O      0.206990000000     0.386720000000     0.417010000000    -0.496585   
O7       O      0.137370000000     0.298110000000     0.433800000000    -0.495826   
O8       O      0.154770000000     0.360740000000     0.376260000000    -0.488617   
O9       O      0.346490000000     0.169040000000     0.508070000000    -0.490724   
O10      O      0.346480000000     0.187290000000     0.555450000000    -0.476454   
O11      O      0.361190000000     0.101370000000     0.526920000000    -0.482657   
O12      O      0.407040000000     0.154540000000     0.515190000000    -0.483968   
O13      O      0.349560000000     0.150170000000     0.600250000000    -0.486518   
O14      O      0.409980000000     0.185550000000     0.553850000000    -0.497399   
O15      O      0.322490000000     0.114000000000     0.540380000000    -0.496332   
O16      O      0.385490000000     0.130770000000     0.594630000000    -0.490177   
O17      O      0.336560000000     0.152580000000     0.963610000000    -0.489414   
O18      O      0.318220000000     0.151880000000     0.916280000000    -0.476625   
O19      O      0.404300000000     0.136890000000     0.943190000000    -0.483094   
O20      O      0.350590000000     0.091900000000     0.957330000000    -0.484919   
O21      O      0.356470000000     0.151680000000     0.872430000000    -0.48641    
O22      O      0.321520000000     0.087870000000     0.917000000000    -0.496551   
O23      O      0.391120000000     0.176490000000     0.933820000000    -0.495618   
O24      O      0.373730000000     0.113860000000     0.876250000000    -0.488341   
O25      O      0.182020000000     0.305580000000     0.008060000000    -0.490643   
O26      O      0.182050000000     0.287350000000     0.055450000000    -0.476524   
O27      O      0.167330000000     0.373260000000     0.026910000000    -0.48249    
O28      O      0.121480000000     0.320090000000     0.015200000000    -0.484145   
O29      O      0.178970000000     0.324490000000     0.100250000000    -0.486645   
O30      O      0.118550000000     0.289080000000     0.053840000000    -0.497551   
O31      O      0.206030000000     0.360630000000     0.040380000000    -0.496278   
O32      O      0.143030000000     0.343870000000     0.094620000000    -0.490211   
O33      O      0.191950000000     0.822030000000     0.463610000000    -0.489505   
O34      O      0.210270000000     0.822710000000     0.416280000000    -0.476745   
O35      O      0.124210000000     0.837710000000     0.443200000000    -0.483438   
O36      O      0.177910000000     0.882710000000     0.457330000000    -0.484822   
O37      O      0.172030000000     0.822930000000     0.372420000000    -0.48647    
O38      O      0.206990000000     0.886720000000     0.417010000000    -0.49659    
O39      O      0.137370000000     0.798110000000     0.433800000000    -0.495828   
O40      O      0.154770000000     0.860740000000     0.376260000000    -0.488632   
O41      O      0.346490000000     0.669040000000     0.508070000000    -0.490836   
O42      O      0.346480000000     0.687290000000     0.555450000000    -0.476645   
O43      O      0.361190000000     0.601370000000     0.526920000000    -0.482439   
O44      O      0.407040000000     0.654540000000     0.515190000000    -0.483966   
O45      O      0.349560000000     0.650170000000     0.600250000000    -0.486558   
O46      O      0.409980000000     0.685550000000     0.553850000000    -0.497515   
O47      O      0.322490000000     0.614010000000     0.540380000000    -0.496174   
O48      O      0.385490000000     0.630770000000     0.594630000000    -0.490114   
O49      O      0.336560000000     0.652580000000     0.963610000000    -0.48942    
O50      O      0.318220000000     0.651880000000     0.916280000000    -0.47663    
O51      O      0.404300000000     0.636890000000     0.943190000000    -0.483103   
O52      O      0.350590000000     0.591900000000     0.957330000000    -0.484951   
O53      O      0.356470000000     0.651680000000     0.872430000000    -0.486342   
O54      O      0.321520000000     0.587870000000     0.917000000000    -0.496578   
O55      O      0.391120000000     0.676490000000     0.933820000000    -0.495625   
O56      O      0.373730000000     0.613860000000     0.876250000000    -0.48839    
O57      O      0.182020000000     0.805580000000     0.008060000000    -0.490647   
O58      O      0.182050000000     0.787350000000     0.055450000000    -0.476528   
O59      O      0.167330000000     0.873260000000     0.026910000000    -0.482504   
O60      O      0.121480000000     0.820090000000     0.015200000000    -0.484151   
O61      O      0.178970000000     0.824490000000     0.100250000000    -0.486648   
O62      O      0.118550000000     0.789080000000     0.053840000000    -0.497554   
O63      O      0.206030000000     0.860630000000     0.040380000000    -0.496288   
O64      O      0.143030000000     0.843870000000     0.094620000000    -0.490219   
O65      O      0.691950000000     0.322030000000     0.463610000000    -0.489498   
O66      O      0.710270000000     0.322710000000     0.416280000000    -0.47674    
O67      O      0.624210000000     0.337710000000     0.443200000000    -0.483417   
O68      O      0.677910000000     0.382710000000     0.457330000000    -0.48481    
O69      O      0.672030000000     0.322930000000     0.372420000000    -0.486459   
O70      O      0.706990000000     0.386720000000     0.417010000000    -0.496582   
O71      O      0.637370000000     0.298110000000     0.433800000000    -0.495816   
O72      O      0.654770000000     0.360740000000     0.376260000000    -0.48861    
O73      O      0.846490000000     0.169040000000     0.508070000000    -0.49072    
O74      O      0.846480000000     0.187290000000     0.555450000000    -0.476445   
O75      O      0.861190000000     0.101370000000     0.526920000000    -0.482654   
O76      O      0.907040000000     0.154540000000     0.515190000000    -0.483927   
O77      O      0.849560000000     0.150170000000     0.600250000000    -0.486601   
O78      O      0.909980000000     0.185550000000     0.553850000000    -0.497354   
O79      O      0.822490000000     0.114000000000     0.540380000000    -0.49633    
O80      O      0.885490000000     0.130770000000     0.594630000000    -0.49009    
O81      O      0.836560000000     0.152580000000     0.963610000000    -0.489395   
O82      O      0.818220000000     0.151880000000     0.916280000000    -0.476621   
O83      O      0.904300000000     0.136890000000     0.943190000000    -0.483123   
O84      O      0.850590000000     0.091900000000     0.957330000000    -0.484903   
O85      O      0.856470000000     0.151680000000     0.872430000000    -0.486343   
O86      O      0.821520000000     0.087870000000     0.917000000000    -0.496539   
O87      O      0.891120000000     0.176490000000     0.933830000000    -0.495651   
O88      O      0.873730000000     0.113860000000     0.876250000000    -0.488373   
O89      O      0.682020000000     0.305580000000     0.008060000000    -0.490644   
O90      O      0.682050000000     0.287350000000     0.055450000000    -0.476527   
O91      O      0.667330000000     0.373260000000     0.026910000000    -0.482483   
O92      O      0.621480000000     0.320090000000     0.015200000000    -0.484139   
O93      O      0.678970000000     0.324490000000     0.100250000000    -0.486642   
O94      O      0.618550000000     0.289080000000     0.053840000000    -0.497546   
O95      O      0.706030000000     0.360630000000     0.040380000000    -0.496276   
O96      O      0.643030000000     0.343870000000     0.094620000000    -0.490204   
O97      O      0.691950000000     0.822030000000     0.463610000000    -0.489502   
O98      O      0.710270000000     0.822710000000     0.416280000000    -0.476744   
O99      O      0.624210000000     0.837710000000     0.443200000000    -0.483425   
O100     O      0.677910000000     0.882710000000     0.457330000000    -0.484813   
O101     O      0.672030000000     0.822930000000     0.372420000000    -0.486467   
O102     O      0.706990000000     0.886720000000     0.417010000000    -0.496585   
O103     O      0.637370000000     0.798110000000     0.433800000000    -0.495819   
O104     O      0.654770000000     0.860740000000     0.376260000000    -0.488625   
O105     O      0.846490000000     0.669040000000     0.508070000000    -0.490846   
O106     O      0.846480000000     0.687290000000     0.555450000000    -0.476633   
O107     O      0.861190000000     0.601370000000     0.526920000000    -0.482523   
O108     O      0.907040000000     0.654540000000     0.515190000000    -0.483886   
O109     O      0.849560000000     0.650170000000     0.600250000000    -0.486649   
O110     O      0.909970000000     0.685550000000     0.553850000000    -0.497495   
O111     O      0.822490000000     0.614000000000     0.540380000000    -0.496277   
O112     O      0.885490000000     0.630770000000     0.594630000000    -0.490032   
O113     O      0.836560000000     0.652580000000     0.963610000000    -0.489414   
O114     O      0.818220000000     0.651880000000     0.916280000000    -0.476627   
O115     O      0.904300000000     0.636890000000     0.943190000000    -0.483108   
O116     O      0.850590000000     0.591900000000     0.957330000000    -0.484944   
O117     O      0.856470000000     0.651680000000     0.872430000000    -0.486338   
O118     O      0.821520000000     0.587870000000     0.917000000000    -0.496575   
O119     O      0.891120000000     0.676490000000     0.933820000000    -0.495633   
O120     O      0.873730000000     0.613860000000     0.876250000000    -0.488382   
O121     O      0.682020000000     0.805580000000     0.008060000000    -0.490648   
O122     O      0.682050000000     0.787350000000     0.055450000000    -0.47653    
O123     O      0.667330000000     0.873260000000     0.026910000000    -0.4825     
O124     O      0.621480000000     0.820090000000     0.015200000000    -0.484145   
O125     O      0.678970000000     0.824490000000     0.100250000000    -0.486645   
O126     O      0.618550000000     0.789080000000     0.053840000000    -0.497549   
O127     O      0.706030000000     0.860630000000     0.040380000000    -0.496288   
O128     O      0.643030000000     0.843870000000     0.094620000000    -0.490211   


