data_structure

_audit_creation_method RASPA-1.0
_audit_creation_date 2023-5-22
_audit_author_name 'Poobodin Mano'

_cell_length_a    47.5124
_cell_length_b    47.5437
_cell_length_c    47.4585
_cell_angle_alpha 89.9906
_cell_angle_beta  90.3304
_cell_angle_gamma 120.083
_cell_volume      92762.3

_symmetry_cell_setting          triclinic
_symmetry_space_group_name_Hall 'P 1'
_symmetry_space_group_name_H-M  'P 1'
_symmetry_Int_Tables_number     1

_symmetry_equiv_pos_as_xyz 'x,y,z'

loop_
_atom_site_label
_atom_site_type_symbol
_atom_site_fract_x
_atom_site_fract_y
_atom_site_fract_z
_atom_site_charge
C1       C      0.485500000000     0.331810000000     0.143570000000     0.360939   
C2       C      0.488010000000     0.419410000000     0.188550000000     0.357743   
C3       C      0.570960000000     0.416020000000     0.144540000000     0.353831   
C4       C      0.485260000000     0.417450000000     0.101570000000     0.353782   
C5       C      0.320700000000     0.495360000000     0.393470000000     0.360845   
C6       C      0.409590000000     0.497470000000     0.351800000000     0.35672    
C7       C      0.404580000000     0.580810000000     0.392310000000     0.353839   
C8       C      0.405660000000     0.496290000000     0.438670000000     0.35512    
C9       C      0.777720000000     0.328290000000     0.129600000000     0.353648   
C10      C      0.863440000000     0.412710000000     0.084010000000     0.35551    
C11      C      0.779580000000     0.413830000000     0.129310000000     0.36076    
C12      C      0.866490000000     0.411600000000     0.170800000000     0.355858   
C13      C      0.109370000000     0.492660000000     0.379620000000     0.353951   
C14      C      0.022310000000     0.491250000000     0.422620000000     0.353825   
C15      C      0.108360000000     0.576740000000     0.381320000000     0.361104   
C16      C      0.022890000000     0.489190000000     0.335600000000     0.357248   
C17      C      0.565660000000     0.119210000000     0.131130000000     0.357232   
C18      C      0.478820000000     0.034120000000     0.181280000000     0.356523   
C19      C      0.481970000000     0.119850000000     0.143320000000     0.358059   
C20      C      0.482470000000     0.033630000000     0.093560000000     0.357016   
C21      C      0.402060000000     0.789870000000     0.391820000000     0.35783    
C22      C      0.400180000000     0.875280000000     0.343040000000     0.356431   
C23      C      0.317390000000     0.788830000000     0.381480000000     0.35752    
C24      C      0.403940000000     0.875290000000     0.430580000000     0.356392   
C25      C      0.447920000000     0.925180000000     0.280370000000    -0.0642199  
C26      C      0.432250000000     0.942890000000     0.274020000000     0.0227431  
C27      C      0.405500000000     0.937730000000     0.290430000000    -0.0640644  
C28      C      0.394860000000     0.915580000000     0.312740000000     0.0212208  
C29      C      0.410860000000     0.898270000000     0.319200000000    -0.0988374  
C30      C      0.437430000000     0.903250000000     0.302760000000     0.0218524  
C31      C      0.444030000000     0.966760000000     0.250490000000     0.0227445  
C32      C      0.477550000000     0.986230000000     0.245370000000    -0.0641608  
C33      C      0.488750000000     0.008100000000     0.222940000000     0.0217877  
C34      C      0.466730000000     0.011260000000     0.205230000000    -0.0986963  
C35      C      0.433250000000     0.992220000000     0.210470000000     0.0211258  
C36      C      0.422000000000     0.970120000000     0.232830000000    -0.0640794  
C37      C      0.405100000000     0.924330000000     0.493770000000    -0.0641856  
C38      C      0.438500000000     0.942590000000     0.500210000000     0.0227376  
C39      C      0.460460000000     0.938150000000     0.483650000000    -0.0640762  
C40      C      0.449270000000     0.916120000000     0.461130000000     0.0211687  
C41      C      0.415920000000     0.898230000000     0.454600000000    -0.0986044  
C42      C      0.393970000000     0.902520000000     0.471170000000     0.0217893  
C43      C      0.450260000000     0.966290000000     0.023990000000     0.0228564  
C44      C      0.435660000000     0.985160000000     0.029440000000    -0.0643018  
C45      C      0.446160000000     0.006980000000     0.052020000000     0.0219767  
C46      C      0.471690000000     0.010670000000     0.069580000000    -0.0990245  
C47      C      0.486600000000     0.992160000000     0.064050000000     0.021422   
C48      C      0.475940000000     0.970120000000     0.041540000000    -0.064213   
C49      C      0.170470000000     0.660930000000     0.356450000000    -0.064776   
C50      C      0.189870000000     0.674150000000     0.380730000000     0.0230536  
C51      C      0.180520000000     0.655920000000     0.405760000000    -0.0645993  
C52      C      0.153210000000     0.624760000000     0.406230000000     0.0222627  
C53      C      0.134730000000     0.611070000000     0.381650000000    -0.100403   
C54      C      0.143220000000     0.629690000000     0.356900000000     0.0225626  
C55      C      0.220980000000     0.705700000000     0.379560000000     0.0225926  
C56      C      0.241580000000     0.713360000000     0.356150000000    -0.0641602  
C57      C      0.272400000000     0.741190000000     0.356270000000     0.0213735  
C58      C      0.283370000000     0.761890000000     0.379850000000    -0.0987304  
C59      C      0.262340000000     0.755060000000     0.402760000000     0.0217476  
C60      C      0.231440000000     0.727310000000     0.402590000000    -0.0642091  
C61      C      0.641350000000     0.193850000000     0.105260000000    -0.0643055  
C62      C      0.662890000000     0.200830000000     0.128100000000     0.0228585  
C63      C      0.652990000000     0.179020000000     0.150860000000    -0.0643262  
C64      C      0.621770000000     0.151740000000     0.151350000000     0.0217378  
C65      C      0.599850000000     0.145610000000     0.129040000000    -0.0986126  
C66      C      0.610200000000     0.166500000000     0.105700000000     0.0214135  
C67      C      0.694470000000     0.231930000000     0.129060000000     0.0223567  
C68      C      0.712970000000     0.244940000000     0.104510000000    -0.0638164  
C69      C      0.740760000000     0.275830000000     0.104890000000     0.0206495  
C70      C      0.750670000000     0.294280000000     0.129840000000    -0.0965235  
C71      C      0.733040000000     0.280770000000     0.154640000000     0.0205888  
C72      C      0.705210000000     0.249970000000     0.154240000000    -0.0636829  
C73      C      0.931060000000     0.466140000000     0.223340000000    -0.0641924  
C74      C      0.934160000000     0.443580000000     0.240320000000     0.0227237  
C75      C      0.915270000000     0.410290000000     0.233710000000    -0.0639869  
C76      C      0.893570000000     0.399860000000     0.210890000000     0.0213523  
C77      C      0.890150000000     0.422470000000     0.194330000000    -0.0983713  
C78      C      0.909210000000     0.455700000000     0.200700000000     0.0217827  
C79      C      0.956670000000     0.454820000000     0.265010000000     0.0229491  
C80      C      0.975000000000     0.439950000000     0.271960000000    -0.0642459  
C81      C      0.996350000000     0.450890000000     0.295050000000     0.0217923  
C82      C      0.999950000000     0.477030000000     0.311530000000    -0.0993733  
C83      C      0.981560000000     0.491790000000     0.304720000000     0.0221364  
C84      C      0.960080000000     0.480730000000     0.281820000000    -0.0644775  
C85      C      0.926140000000     0.468160000000     0.031200000000    -0.0640392  
C86      C      0.930490000000     0.446000000000     0.014740000000     0.022783   
C87      C      0.912230000000     0.412690000000     0.021270000000    -0.0639915  
C88      C      0.890520000000     0.401900000000     0.043820000000     0.0215973  
C89      C      0.886220000000     0.424090000000     0.060090000000    -0.0982972  
C90      C      0.904080000000     0.457290000000     0.053480000000     0.0215836  
C91      C      0.954040000000     0.457590000000     0.490990000000     0.022607   
C92      C      0.958670000000     0.484050000000     0.474290000000    -0.0637909  
C93      C      0.981020000000     0.495120000000     0.452220000000     0.0211853  
C94      C      0.998900000000     0.479720000000     0.446080000000    -0.0972979  
C95      C      0.994200000000     0.453170000000     0.462510000000     0.0212475  
C96      C      0.972210000000     0.442380000000     0.484830000000    -0.0637264  
C97      C      0.424840000000     0.664640000000     0.416980000000    -0.0638574  
C98      C      0.417870000000     0.677140000000     0.392730000000     0.0223643  
C99      C      0.409000000000     0.658570000000     0.367790000000    -0.0637091  
C100     C      0.405970000000     0.627790000000     0.367380000000     0.0206343  
C101     C      0.411590000000     0.614800000000     0.391930000000    -0.0966141  
C102     C      0.421680000000     0.633770000000     0.416590000000     0.02074    
C103     C      0.417530000000     0.708250000000     0.393820000000     0.0228026  
C104     C      0.404510000000     0.715770000000     0.417290000000    -0.0642214  
C105     C      0.400790000000     0.743120000000     0.417130000000     0.0214012  
C106     C      0.409850000000     0.763470000000     0.393450000000    -0.0987445  
C107     C      0.424120000000     0.756810000000     0.370470000000     0.0218157  
C108     C      0.427990000000     0.729540000000     0.370680000000    -0.0643184  
C109     C      0.241150000000     0.489790000000     0.413380000000    -0.0647219  
C110     C      0.223440000000     0.479360000000     0.387950000000     0.0231713  
C111     C      0.237060000000     0.471550000000     0.365120000000    -0.0648137  
C112     C      0.268230000000     0.475560000000     0.367250000000     0.0225956  
C113     C      0.286360000000     0.487280000000     0.392300000000    -0.100492   
C114     C      0.272220000000     0.493610000000     0.415550000000     0.0223115  
C115     C      0.192090000000     0.479040000000     0.384720000000     0.0222781  
C116     C      0.170000000000     0.469650000000     0.407170000000    -0.0637905  
C117     C      0.142410000000     0.472940000000     0.405150000000     0.0207587  
C118     C      0.136240000000     0.485500000000     0.380580000000    -0.0967291  
C119     C      0.157450000000     0.493470000000     0.357670000000     0.0206777  
C120     C      0.185110000000     0.490370000000     0.359740000000    -0.0637079  
C121     C      0.654240000000     0.439250000000     0.116590000000    -0.0636882  
C122     C      0.667350000000     0.429860000000     0.138910000000     0.0221733  
C123     C      0.649420000000     0.418450000000     0.163950000000    -0.0636225  
C124     C      0.618650000000     0.415280000000     0.166200000000     0.0205866  
C125     C      0.605020000000     0.423250000000     0.143410000000    -0.0967112  
C126     C      0.623370000000     0.435890000000     0.118790000000     0.0207711  
C127     C      0.698350000000     0.429620000000     0.135470000000     0.0232262  
C128     C      0.705230000000     0.419350000000     0.109920000000    -0.064742   
C129     C      0.732480000000     0.415610000000     0.107550000000     0.0223256  
C130     C      0.753340000000     0.421870000000     0.130700000000    -0.100647   
C131     C      0.747330000000     0.433430000000     0.155870000000     0.0226708  
C132     C      0.720180000000     0.437370000000     0.158210000000    -0.0649103  
C133     C      0.477120000000     0.252220000000     0.119290000000    -0.0646095  
C134     C      0.469270000000     0.234380000000     0.144530000000     0.0230188  
C135     C      0.464200000000     0.247990000000     0.168940000000    -0.0647858  
C136     C      0.468280000000     0.279230000000     0.168400000000     0.0225493  
C137     C      0.477410000000     0.297470000000     0.143430000000    -0.100406   
C138     C      0.481070000000     0.283380000000     0.118740000000     0.0222558  
C139     C      0.468780000000     0.202850000000     0.145700000000     0.0226277  
C140     C      0.456510000000     0.180850000000     0.122980000000    -0.064251   
C141     C      0.459600000000     0.153110000000     0.122710000000     0.0218051  
C142     C      0.474910000000     0.146720000000     0.145210000000    -0.0989995  
C143     C      0.485780000000     0.167820000000     0.168520000000     0.0214509  
C144     C      0.482820000000     0.195620000000     0.168740000000    -0.064208   
C145     C      0.454060000000     0.496220000000     0.502250000000    -0.063924   
C146     C      0.439100000000     0.462870000000     0.508580000000     0.0228064  
C147     C      0.412800000000     0.440710000000     0.491690000000    -0.0640008  
C148     C      0.401730000000     0.451610000000     0.469190000000     0.0214929  
C149     C      0.416970000000     0.484860000000     0.462790000000    -0.0980715  
C150     C      0.443270000000     0.507060000000     0.479480000000     0.0214516  
C151     C      0.450940000000     0.451240000000     0.032570000000     0.0226418  
C152     C      0.484320000000     0.466670000000     0.039290000000    -0.0637625  
C153     C      0.495410000000     0.455830000000     0.061830000000     0.0212406  
C154     C      0.473480000000     0.429040000000     0.077920000000    -0.0973065  
C155     C      0.440200000000     0.413430000000     0.071210000000     0.0212138  
C156     C      0.429020000000     0.424540000000     0.048930000000    -0.0637983  
C157     C      0.459870000000     0.498570000000     0.289670000000    -0.0641178  
C158     C      0.445040000000     0.465310000000     0.282890000000     0.0227856  
C159     C      0.418980000000     0.442820000000     0.299480000000    -0.06436    
C160     C      0.407650000000     0.453340000000     0.321900000000     0.0220099  
C161     C      0.422270000000     0.486550000000     0.328450000000    -0.0989489  
C162     C      0.448660000000     0.509060000000     0.312280000000     0.0215615  
C163     C      0.456290000000     0.454000000000     0.258440000000     0.0229192  
C164     C      0.433670000000     0.428350000000     0.241310000000    -0.0644781  
C165     C      0.444050000000     0.417220000000     0.218650000000     0.0222406  
C166     C      0.477280000000     0.431620000000     0.212400000000    -0.0996639  
C167     C      0.499960000000     0.457500000000     0.229210000000     0.021718   
C168     C      0.489580000000     0.468520000000     0.252060000000    -0.0642911  
C169     C      0.485500000000     0.331810000000     0.643570000000     0.361019   
C170     C      0.488010000000     0.419410000000     0.688550000000     0.357745   
C171     C      0.570960000000     0.416020000000     0.644540000000     0.353847   
C172     C      0.485270000000     0.417450000000     0.601570000000     0.353834   
C173     C      0.320700000000     0.495360000000     0.893470000000     0.36087    
C174     C      0.409590000000     0.497470000000     0.851800000000     0.356492   
C175     C      0.404580000000     0.580810000000     0.892310000000     0.353834   
C176     C      0.405660000000     0.496290000000     0.938670000000     0.355116   
C177     C      0.777720000000     0.328300000000     0.629600000000     0.35364    
C178     C      0.863440000000     0.412710000000     0.584010000000     0.355384   
C179     C      0.779580000000     0.413830000000     0.629310000000     0.360628   
C180     C      0.866490000000     0.411600000000     0.670800000000     0.355997   
C181     C      0.109370000000     0.492660000000     0.879620000000     0.35397    
C182     C      0.022310000000     0.491250000000     0.922620000000     0.354257   
C183     C      0.108360000000     0.576740000000     0.881320000000     0.361099   
C184     C      0.022890000000     0.489180000000     0.835600000000     0.357442   
C185     C      0.565650000000     0.119210000000     0.631130000000     0.35768    
C186     C      0.478820000000     0.034120000000     0.681280000000     0.356515   
C187     C      0.481970000000     0.119850000000     0.643320000000     0.357688   
C188     C      0.482460000000     0.033630000000     0.593560000000     0.357017   
C189     C      0.402060000000     0.789870000000     0.891820000000     0.357836   
C190     C      0.400180000000     0.875280000000     0.843040000000     0.356626   
C191     C      0.317390000000     0.788830000000     0.881480000000     0.357525   
C192     C      0.403940000000     0.875290000000     0.930580000000     0.35659    
C193     C      0.447920000000     0.925180000000     0.780370000000    -0.0642456  
C194     C      0.432250000000     0.942890000000     0.774020000000     0.0227686  
C195     C      0.405500000000     0.937730000000     0.790430000000    -0.06409    
C196     C      0.394860000000     0.915580000000     0.812740000000     0.0212652  
C197     C      0.410860000000     0.898270000000     0.819200000000    -0.098928   
C198     C      0.437430000000     0.903250000000     0.802760000000     0.0218978  
C199     C      0.444030000000     0.966760000000     0.750490000000     0.0227143  
C200     C      0.477550000000     0.986230000000     0.745370000000    -0.0641439  
C201     C      0.488750000000     0.008100000000     0.722940000000     0.0217774  
C202     C      0.466730000000     0.011260000000     0.705230000000    -0.0986839  
C203     C      0.433250000000     0.992220000000     0.710470000000     0.0211025  
C204     C      0.422000000000     0.970130000000     0.732830000000    -0.0640531  
C205     C      0.405100000000     0.924330000000     0.993770000000    -0.0640788  
C206     C      0.438500000000     0.942590000000     0.000210000000     0.0226466  
C207     C      0.460460000000     0.938150000000     0.983650000000    -0.0640377  
C208     C      0.449270000000     0.916120000000     0.961130000000     0.0212123  
C209     C      0.415930000000     0.898230000000     0.954600000000    -0.0986503  
C210     C      0.393970000000     0.902520000000     0.971170000000     0.0217388  
C211     C      0.450260000000     0.966290000000     0.523990000000     0.0228279  
C212     C      0.435660000000     0.985160000000     0.529440000000    -0.0642739  
C213     C      0.446160000000     0.006980000000     0.552030000000     0.0219631  
C214     C      0.471690000000     0.010670000000     0.569580000000    -0.0990177  
C215     C      0.486600000000     0.992160000000     0.564050000000     0.021426   
C216     C      0.475940000000     0.970120000000     0.541540000000    -0.0641976  
C217     C      0.170470000000     0.660930000000     0.856450000000    -0.0647739  
C218     C      0.189870000000     0.674150000000     0.880730000000     0.023049   
C219     C      0.180520000000     0.655920000000     0.905760000000    -0.0645954  
C220     C      0.153210000000     0.624760000000     0.906230000000     0.0222591  
C221     C      0.134730000000     0.611070000000     0.881650000000    -0.100401   
C222     C      0.143220000000     0.629690000000     0.856900000000     0.0225631  
C223     C      0.220980000000     0.705700000000     0.879560000000     0.0225957  
C224     C      0.241580000000     0.713360000000     0.856150000000    -0.0641656  
C225     C      0.272400000000     0.741190000000     0.856270000000     0.0213798  
C226     C      0.283370000000     0.761890000000     0.879850000000    -0.0987327  
C227     C      0.262340000000     0.755060000000     0.902760000000     0.0217553  
C228     C      0.231440000000     0.727310000000     0.902590000000    -0.0642177  
C229     C      0.641350000000     0.193850000000     0.605260000000    -0.0643218  
C230     C      0.662890000000     0.200830000000     0.628100000000     0.0228684  
C231     C      0.652990000000     0.179020000000     0.650860000000    -0.0643483  
C232     C      0.621770000000     0.151740000000     0.651350000000     0.0217855  
C233     C      0.599850000000     0.145610000000     0.629040000000    -0.0986947  
C234     C      0.610200000000     0.166500000000     0.605700000000     0.0214499  
C235     C      0.694470000000     0.231930000000     0.629060000000     0.022366   
C236     C      0.712970000000     0.244940000000     0.604510000000    -0.0638127  
C237     C      0.740760000000     0.275830000000     0.604890000000     0.0206344  
C238     C      0.750680000000     0.294280000000     0.629840000000    -0.0964569  
C239     C      0.733040000000     0.280770000000     0.654640000000     0.0205712  
C240     C      0.705210000000     0.249970000000     0.654240000000    -0.063726   
C241     C      0.931060000000     0.466140000000     0.723340000000    -0.0641904  
C242     C      0.934160000000     0.443580000000     0.740320000000     0.022728   
C243     C      0.915280000000     0.410290000000     0.733710000000    -0.0640021  
C244     C      0.893570000000     0.399860000000     0.710890000000     0.0213328  
C245     C      0.890160000000     0.422470000000     0.694330000000    -0.0983643  
C246     C      0.909210000000     0.455700000000     0.700700000000     0.0217809  
C247     C      0.956670000000     0.454820000000     0.765010000000     0.0229748  
C248     C      0.975000000000     0.439940000000     0.771960000000    -0.0642956  
C249     C      0.996360000000     0.450890000000     0.795050000000     0.0218092  
C250     C      0.999950000000     0.477030000000     0.811530000000    -0.0994996  
C251     C      0.981560000000     0.491780000000     0.804720000000     0.0222691  
C252     C      0.960080000000     0.480730000000     0.781820000000    -0.0645455  
C253     C      0.926140000000     0.468160000000     0.531200000000    -0.0640567  
C254     C      0.930490000000     0.446010000000     0.514740000000     0.0228401  
C255     C      0.912230000000     0.412690000000     0.521270000000    -0.0639917  
C256     C      0.890520000000     0.401900000000     0.543820000000     0.0215823  
C257     C      0.886220000000     0.424090000000     0.560090000000    -0.0982394  
C258     C      0.904080000000     0.457290000000     0.553480000000     0.0215742  
C259     C      0.954040000000     0.457590000000     0.990990000000     0.022711   
C260     C      0.958670000000     0.484050000000     0.974290000000    -0.0639303  
C261     C      0.981020000000     0.495120000000     0.952220000000     0.0213395  
C262     C      0.998900000000     0.479720000000     0.946080000000    -0.0975159  
C263     C      0.994200000000     0.453170000000     0.962500000000     0.0213771  
C264     C      0.972210000000     0.442380000000     0.984830000000    -0.0637839  
C265     C      0.424840000000     0.664640000000     0.916980000000    -0.0638519  
C266     C      0.417870000000     0.677140000000     0.892730000000     0.022356   
C267     C      0.409000000000     0.658570000000     0.867790000000    -0.0637038  
C268     C      0.405970000000     0.627790000000     0.867380000000     0.0206319  
C269     C      0.411590000000     0.614800000000     0.891930000000    -0.0966105  
C270     C      0.421680000000     0.633770000000     0.916590000000     0.0207382  
C271     C      0.417530000000     0.708250000000     0.893820000000     0.0228251  
C272     C      0.404510000000     0.715770000000     0.917290000000    -0.0642324  
C273     C      0.400790000000     0.743120000000     0.917130000000     0.021411   
C274     C      0.409850000000     0.763470000000     0.893450000000    -0.0987567  
C275     C      0.424120000000     0.756810000000     0.870470000000     0.0218376  
C276     C      0.427990000000     0.729540000000     0.870680000000    -0.0643648  
C277     C      0.241150000000     0.489790000000     0.913380000000    -0.0647275  
C278     C      0.223440000000     0.479360000000     0.887950000000     0.023227   
C279     C      0.237060000000     0.471550000000     0.865120000000    -0.0649324  
C280     C      0.268230000000     0.475560000000     0.867260000000     0.0227156  
C281     C      0.286360000000     0.487280000000     0.892300000000    -0.10056    
C282     C      0.272220000000     0.493610000000     0.915550000000     0.0223394  
C283     C      0.192100000000     0.479040000000     0.884720000000     0.0221981  
C284     C      0.170000000000     0.469660000000     0.907170000000    -0.0637229  
C285     C      0.142410000000     0.472940000000     0.905150000000     0.0207554  
C286     C      0.136240000000     0.485500000000     0.880580000000    -0.0967224  
C287     C      0.157450000000     0.493470000000     0.857670000000     0.0206634  
C288     C      0.185110000000     0.490370000000     0.859740000000    -0.0636627  
C289     C      0.654240000000     0.439250000000     0.616590000000    -0.0637359  
C290     C      0.667350000000     0.429860000000     0.638910000000     0.0222161  
C291     C      0.649420000000     0.418450000000     0.663960000000    -0.0637001  
C292     C      0.618650000000     0.415280000000     0.666200000000     0.0206446  
C293     C      0.605020000000     0.423250000000     0.643410000000    -0.0967594  
C294     C      0.623370000000     0.435880000000     0.618790000000     0.0208342  
C295     C      0.698350000000     0.429630000000     0.635470000000     0.0231606  
C296     C      0.705230000000     0.419350000000     0.609920000000    -0.0646517  
C297     C      0.732480000000     0.415610000000     0.607540000000     0.0222032  
C298     C      0.753340000000     0.421870000000     0.630700000000    -0.10055    
C299     C      0.747330000000     0.433430000000     0.655870000000     0.0226292  
C300     C      0.720180000000     0.437370000000     0.658210000000    -0.0648614  
C301     C      0.477120000000     0.252220000000     0.619290000000    -0.0646072  
C302     C      0.469270000000     0.234380000000     0.644530000000     0.0230166  
C303     C      0.464200000000     0.247990000000     0.668940000000    -0.0647717  
C304     C      0.468280000000     0.279230000000     0.668400000000     0.0225248  
C305     C      0.477410000000     0.297470000000     0.643430000000    -0.100412   
C306     C      0.481080000000     0.283380000000     0.618740000000     0.0222519  
C307     C      0.468780000000     0.202850000000     0.645700000000     0.0226248  
C308     C      0.456510000000     0.180850000000     0.622980000000    -0.0642418  
C309     C      0.459600000000     0.153110000000     0.622710000000     0.0217775  
C310     C      0.474910000000     0.146720000000     0.645210000000    -0.0988793  
C311     C      0.485770000000     0.167820000000     0.668520000000     0.0214352  
C312     C      0.482820000000     0.195620000000     0.668740000000    -0.0642119  
C313     C      0.454060000000     0.496220000000     0.002250000000    -0.063913   
C314     C      0.439100000000     0.462870000000     0.008580000000     0.0227529  
C315     C      0.412800000000     0.440710000000     0.991690000000    -0.0639509  
C316     C      0.401730000000     0.451610000000     0.969190000000     0.021479   
C317     C      0.416970000000     0.484860000000     0.962790000000    -0.0980609  
C318     C      0.443270000000     0.507060000000     0.979480000000     0.0214684  
C319     C      0.450940000000     0.451240000000     0.532570000000     0.0226065  
C320     C      0.484320000000     0.466670000000     0.539290000000    -0.0637326  
C321     C      0.495410000000     0.455830000000     0.561830000000     0.0212045  
C322     C      0.473480000000     0.429040000000     0.577920000000    -0.0972448  
C323     C      0.440200000000     0.413430000000     0.571210000000     0.0212076  
C324     C      0.429020000000     0.424530000000     0.548930000000    -0.0637775  
C325     C      0.459870000000     0.498570000000     0.789670000000    -0.0640781  
C326     C      0.445040000000     0.465310000000     0.782890000000     0.0227598  
C327     C      0.418980000000     0.442820000000     0.799480000000    -0.0643103  
C328     C      0.407650000000     0.453330000000     0.821900000000     0.0219101  
C329     C      0.422270000000     0.486550000000     0.828450000000    -0.0988115  
C330     C      0.448660000000     0.509060000000     0.812280000000     0.0214937  
C331     C      0.456290000000     0.454000000000     0.758440000000     0.022922   
C332     C      0.433670000000     0.428350000000     0.741310000000    -0.0644783  
C333     C      0.444050000000     0.417220000000     0.718650000000     0.0222395  
C334     C      0.477280000000     0.431620000000     0.712400000000    -0.0996598  
C335     C      0.499960000000     0.457500000000     0.729210000000     0.0217062  
C336     C      0.489580000000     0.468520000000     0.752060000000    -0.0642671  
H1       H      0.393090000000     0.951210000000     0.286360000000     0.0480947  
H2       H      0.374350000000     0.912290000000     0.325120000000     0.0395359  
H3       H      0.450110000000     0.890090000000     0.307110000000     0.0419686  
H4       H      0.468180000000     0.928020000000     0.267880000000     0.0484136  
H5       H      0.495260000000     0.984790000000     0.258840000000     0.0483801  
H6       H      0.514720000000     0.022630000000     0.219540000000     0.0421356  
H7       H      0.415710000000     0.994090000000     0.197100000000     0.039397   
H8       H      0.396020000000     0.955270000000     0.235940000000     0.0481228  
H9       H      0.486370000000     0.952080000000     0.487770000000     0.0481339  
H10      H      0.466760000000     0.913370000000     0.448650000000     0.0395969  
H11      H      0.368090000000     0.888890000000     0.466770000000     0.0420202  
H12      H      0.387420000000     0.926630000000     0.506360000000     0.0483958  
H13      H      0.416260000000     0.983340000000     0.016080000000     0.0484128  
H14      H      0.434340000000     0.021090000000     0.055650000000     0.0419917  
H15      H      0.506290000000     0.994430000000     0.077300000000     0.0394258  
H16      H      0.487480000000     0.955710000000     0.038200000000     0.0481511  
H17      H      0.195080000000     0.665100000000     0.424770000000     0.0482616  
H18      H      0.147300000000     0.610960000000     0.425610000000     0.0399458  
H19      H      0.129310000000     0.619820000000     0.337660000000     0.0405949  
H20      H      0.176650000000     0.674500000000     0.336940000000     0.0483299  
H21      H      0.234540000000     0.697120000000     0.338190000000     0.0480826  
H22      H      0.288100000000     0.745790000000     0.338320000000     0.0399424  
H23      H      0.270070000000     0.770690000000     0.421160000000     0.0416001  
H24      H      0.215990000000     0.722460000000     0.420760000000     0.0482973  
H25      H      0.669150000000     0.183350000000     0.168570000000     0.0484005  
H26      H      0.614530000000     0.135940000000     0.169550000000     0.0417498  
H27      H      0.593810000000     0.162430000000     0.088220000000     0.0399091  
H28      H      0.647970000000     0.210270000000     0.087540000000     0.0481038  
H29      H      0.705680000000     0.231490000000     0.084860000000     0.0480777  
H30      H      0.753990000000     0.285560000000     0.085480000000     0.0414835  
H31      H      0.740050000000     0.294440000000     0.174180000000     0.0410445  
H32      H      0.691370000000     0.240940000000     0.173470000000     0.0481035  
H33      H      0.916740000000     0.392210000000     0.246510000000     0.0481668  
H34      H      0.879100000000     0.374060000000     0.206490000000     0.0407099  
H35      H      0.907290000000     0.473720000000     0.188170000000     0.0408378  
H36      H      0.945650000000     0.491990000000     0.227420000000     0.048371   
H37      H      0.973290000000     0.420190000000     0.259300000000     0.0481802  
H38      H      0.010310000000     0.439120000000     0.299770000000     0.0401515  
H39      H      0.983640000000     0.511850000000     0.317170000000     0.0408105  
H40      H      0.945910000000     0.492350000000     0.277480000000     0.0484835  
H41      H      0.914390000000     0.394810000000     0.008800000000     0.0481059  
H42      H      0.876890000000     0.376120000000     0.048340000000     0.0410372  
H43      H      0.901410000000     0.474970000000     0.065820000000     0.0399361  
H44      H      0.940130000000     0.494020000000     0.027200000000     0.0481565  
H45      H      0.944750000000     0.496030000000     0.477990000000     0.0480863  
H46      H      0.984000000000     0.515510000000     0.439750000000     0.040093   
H47      H      0.007830000000     0.440970000000     0.458340000000     0.0413269  
H48      H      0.969830000000     0.422360000000     0.997490000000     0.0480928  
H49      H      0.403020000000     0.667180000000     0.348810000000     0.0480705  
H50      H      0.398090000000     0.613710000000     0.348070000000     0.0409288  
H51      H      0.426350000000     0.624450000000     0.435810000000     0.0415315  
H52      H      0.432230000000     0.678500000000     0.436410000000     0.0481195  
H53      H      0.395830000000     0.699750000000     0.435340000000     0.048075   
H54      H      0.389660000000     0.747600000000     0.435130000000     0.0399384  
H55      H      0.431530000000     0.772190000000     0.351990000000     0.0415601  
H56      H      0.438640000000     0.724800000000     0.352470000000     0.0483421  
H57      H      0.223890000000     0.462920000000     0.345390000000     0.0483679  
H58      H      0.278440000000     0.470280000000     0.349030000000     0.0406022  
H59      H      0.285640000000     0.502760000000     0.435120000000     0.0398117  
H60      H      0.231660000000     0.496420000000     0.431290000000     0.0482321  
H61      H      0.174320000000     0.460310000000     0.426530000000     0.0481064  
H62      H      0.126370000000     0.466400000000     0.423100000000     0.0415916  
H63      H      0.153380000000     0.503300000000     0.338480000000     0.0407312  
H64      H      0.201750000000     0.498230000000     0.342150000000     0.0479973  
H65      H      0.658490000000     0.410580000000     0.181450000000     0.0479617  
H66      H      0.605050000000     0.405390000000     0.185430000000     0.0406916  
H67      H      0.613550000000     0.442430000000     0.100930000000     0.0416038  
H68      H      0.667600000000     0.448660000000     0.097180000000     0.0480515  
H69      H      0.688800000000     0.412760000000     0.092070000000     0.0482229  
H70      H      0.736450000000     0.406580000000     0.087890000000     0.0398075  
H71      H      0.763120000000     0.438650000000     0.174030000000     0.0405228  
H72      H      0.715960000000     0.445890000000     0.178020000000     0.048401   
H73      H      0.457620000000     0.234730000000     0.188620000000     0.0483019  
H74      H      0.465110000000     0.289410000000     0.187740000000     0.0405142  
H75      H      0.488180000000     0.296870000000     0.099180000000     0.0400157  
H76      H      0.481630000000     0.242720000000     0.100170000000     0.048313   
H77      H      0.445070000000     0.185380000000     0.105110000000     0.0483356  
H78      H      0.450810000000     0.137170000000     0.104520000000     0.0416254  
H79      H      0.497740000000     0.163570000000     0.186140000000     0.0398448  
H80      H      0.492890000000     0.212170000000     0.186450000000     0.0480824  
H81      H      0.401010000000     0.414820000000     0.495530000000     0.0481393  
H82      H      0.381530000000     0.433930000000     0.456530000000     0.0399444  
H83      H      0.455340000000     0.532870000000     0.475130000000     0.0411505  
H84      H      0.473940000000     0.514100000000     0.515040000000     0.0480963  
H85      H      0.502040000000     0.486880000000     0.026910000000     0.0480687  
H86      H      0.521250000000     0.468200000000     0.066420000000     0.0414622  
H87      H      0.422710000000     0.392830000000     0.083400000000     0.0400925  
H88      H      0.403110000000     0.412380000000     0.044790000000     0.0480741  
H89      H      0.407390000000     0.416990000000     0.295260000000     0.0484103  
H90      H      0.387410000000     0.435380000000     0.334130000000     0.0408052  
H91      H      0.460340000000     0.534840000000     0.316820000000     0.0404513  
H92      H      0.479740000000     0.516590000000     0.277170000000     0.048168   
H93      H      0.407810000000     0.417010000000     0.245220000000     0.0484315  
H94      H      0.425970000000     0.397370000000     0.205940000000     0.0406719  
H95      H      0.525750000000     0.469000000000     0.224920000000     0.0402209  
H96      H      0.507700000000     0.488050000000     0.264980000000     0.0481987  
H97      H      0.393090000000     0.951210000000     0.786360000000     0.0481032  
H98      H      0.374350000000     0.912290000000     0.825120000000     0.03952    
H99      H      0.450110000000     0.890090000000     0.807110000000     0.0419569  
H100     H      0.468180000000     0.928020000000     0.767880000000     0.0484214  
H101     H      0.495260000000     0.984790000000     0.758840000000     0.048377   
H102     H      0.514720000000     0.022630000000     0.719540000000     0.0421392  
H103     H      0.415720000000     0.994090000000     0.697100000000     0.0394075  
H104     H      0.396020000000     0.955270000000     0.735940000000     0.0481163  
H105     H      0.486370000000     0.952080000000     0.987770000000     0.0481334  
H106     H      0.466760000000     0.913370000000     0.948650000000     0.0395919  
H107     H      0.368090000000     0.888890000000     0.966770000000     0.0420354  
H108     H      0.387420000000     0.926630000000     0.006360000000     0.0483503  
H109     H      0.416260000000     0.983340000000     0.516080000000     0.0484123  
H110     H      0.434340000000     0.021090000000     0.555650000000     0.0419964  
H111     H      0.506290000000     0.994430000000     0.577300000000     0.0394315  
H112     H      0.487480000000     0.955710000000     0.538200000000     0.0481552  
H113     H      0.195080000000     0.665100000000     0.924770000000     0.0482604  
H114     H      0.147300000000     0.610960000000     0.925610000000     0.0399462  
H115     H      0.129310000000     0.619820000000     0.837660000000     0.0406001  
H116     H      0.176660000000     0.674500000000     0.836940000000     0.0483289  
H117     H      0.234530000000     0.697120000000     0.838190000000     0.0480835  
H118     H      0.288100000000     0.745790000000     0.838320000000     0.0399437  
H119     H      0.270070000000     0.770690000000     0.921160000000     0.0416017  
H120     H      0.215990000000     0.722450000000     0.920760000000     0.0483048  
H121     H      0.669150000000     0.183350000000     0.668570000000     0.0484069  
H122     H      0.614530000000     0.135940000000     0.669550000000     0.0417396  
H123     H      0.593810000000     0.162430000000     0.588220000000     0.0399023  
H124     H      0.647970000000     0.210270000000     0.587540000000     0.0481107  
H125     H      0.705680000000     0.231490000000     0.584860000000     0.0480808  
H126     H      0.753990000000     0.285560000000     0.585480000000     0.0414959  
H127     H      0.740050000000     0.294440000000     0.674180000000     0.0410518  
H128     H      0.691370000000     0.240940000000     0.673460000000     0.048135   
H129     H      0.916740000000     0.392210000000     0.746510000000     0.0481839  
H130     H      0.879100000000     0.374070000000     0.706490000000     0.0407179  
H131     H      0.907290000000     0.473720000000     0.688170000000     0.040841   
H132     H      0.945650000000     0.491990000000     0.727420000000     0.0483717  
H133     H      0.973290000000     0.420190000000     0.759300000000     0.048216   
H134     H      0.010310000000     0.439120000000     0.799770000000     0.0401414  
H135     H      0.983640000000     0.511850000000     0.817170000000     0.0407722  
H136     H      0.945910000000     0.492350000000     0.777480000000     0.0485008  
H137     H      0.914390000000     0.394810000000     0.508800000000     0.0481166  
H138     H      0.876890000000     0.376120000000     0.548340000000     0.0410488  
H139     H      0.901410000000     0.474970000000     0.565820000000     0.0399437  
H140     H      0.940130000000     0.494020000000     0.527200000000     0.0481722  
H141     H      0.944760000000     0.496030000000     0.977990000000     0.0481498  
H142     H      0.983990000000     0.515510000000     0.939750000000     0.0400444  
H143     H      0.007840000000     0.440970000000     0.958340000000     0.0412938  
H144     H      0.969820000000     0.422360000000     0.497490000000     0.0480772  
H145     H      0.403020000000     0.667180000000     0.848810000000     0.0480689  
H146     H      0.398090000000     0.613710000000     0.848070000000     0.0409295  
H147     H      0.426350000000     0.624450000000     0.935810000000     0.041535   
H148     H      0.432230000000     0.678500000000     0.936410000000     0.0481206  
H149     H      0.395830000000     0.699750000000     0.935340000000     0.0480797  
H150     H      0.389660000000     0.747600000000     0.935130000000     0.0399367  
H151     H      0.431530000000     0.772190000000     0.851990000000     0.0415545  
H152     H      0.438630000000     0.724800000000     0.852470000000     0.0483671  
H153     H      0.223890000000     0.462910000000     0.845400000000     0.0484175  
H154     H      0.278440000000     0.470280000000     0.849030000000     0.0405688  
H155     H      0.285640000000     0.502760000000     0.935120000000     0.0398083  
H156     H      0.231660000000     0.496430000000     0.931290000000     0.048226   
H157     H      0.174320000000     0.460310000000     0.926530000000     0.0480801  
H158     H      0.126360000000     0.466400000000     0.923100000000     0.0416029  
H159     H      0.153370000000     0.503300000000     0.838480000000     0.0407423  
H160     H      0.201750000000     0.498230000000     0.842150000000     0.047988   
H161     H      0.658490000000     0.410580000000     0.681450000000     0.0480029  
H162     H      0.605040000000     0.405390000000     0.685430000000     0.0406883  
H163     H      0.613550000000     0.442430000000     0.600930000000     0.0415905  
H164     H      0.667600000000     0.448660000000     0.597180000000     0.0480662  
H165     H      0.688800000000     0.412760000000     0.592070000000     0.048203   
H166     H      0.736450000000     0.406580000000     0.587890000000     0.0398402  
H167     H      0.763130000000     0.438650000000     0.674030000000     0.0405392  
H168     H      0.715960000000     0.445890000000     0.678020000000     0.0483904  
H169     H      0.457620000000     0.234730000000     0.688620000000     0.0483002  
H170     H      0.465110000000     0.289410000000     0.687730000000     0.0405253  
H171     H      0.488180000000     0.296870000000     0.599180000000     0.040019   
H172     H      0.481630000000     0.242720000000     0.600170000000     0.0483148  
H173     H      0.445070000000     0.185380000000     0.605110000000     0.0483354  
H174     H      0.450810000000     0.137170000000     0.604510000000     0.041636   
H175     H      0.497740000000     0.163570000000     0.686140000000     0.0398518  
H176     H      0.492890000000     0.212170000000     0.686450000000     0.0480843  
H177     H      0.401010000000     0.414820000000     0.995530000000     0.0481371  
H178     H      0.381530000000     0.433930000000     0.956530000000     0.0399518  
H179     H      0.455340000000     0.532870000000     0.975140000000     0.0411483  
H180     H      0.473950000000     0.514100000000     0.015040000000     0.0480735  
H181     H      0.502040000000     0.486880000000     0.526910000000     0.0480673  
H182     H      0.521250000000     0.468200000000     0.566420000000     0.0414741  
H183     H      0.422710000000     0.392830000000     0.583400000000     0.0401009  
H184     H      0.403110000000     0.412380000000     0.544790000000     0.0480754  
H185     H      0.407390000000     0.416990000000     0.795260000000     0.0483991  
H186     H      0.387410000000     0.435380000000     0.834130000000     0.0408404  
H187     H      0.460330000000     0.534840000000     0.816820000000     0.0404759  
H188     H      0.479740000000     0.516590000000     0.777170000000     0.0481619  
H189     H      0.407810000000     0.417010000000     0.745220000000     0.0484324  
H190     H      0.425970000000     0.397370000000     0.705940000000     0.0406721  
H191     H      0.525750000000     0.469000000000     0.724920000000     0.0402245  
H192     H      0.507710000000     0.488050000000     0.764980000000     0.0481863  
In1      In     0.506880000000     0.396340000000     0.144850000000     2.40229    
In2      In     0.385320000000     0.516910000000     0.394100000000     2.40276    
In3      In     0.822530000000     0.392210000000     0.128310000000     2.4032     
In4      In     0.064960000000     0.512250000000     0.379590000000     2.4028     
In5      In     0.501660000000     0.075760000000     0.137350000000     2.40138    
In6      In     0.381340000000     0.833250000000     0.386700000000     2.40147    
In7      In     0.506880000000     0.396340000000     0.644850000000     2.40228    
In8      In     0.385320000000     0.516910000000     0.894100000000     2.40255    
In9      In     0.822530000000     0.392210000000     0.628310000000     2.40322    
In10     In     0.064960000000     0.512240000000     0.879590000000     2.40316    
In11     In     0.501660000000     0.075760000000     0.637350000000     2.40136    
In12     In     0.381340000000     0.833250000000     0.886700000000     2.40163    
O1       O      0.467850000000     0.390270000000     0.113200000000    -0.486997   
O2       O      0.513570000000     0.433950000000     0.111730000000    -0.483362   
O3       O      0.468730000000     0.394090000000     0.175030000000    -0.491277   
O4       O      0.486440000000     0.346680000000     0.165860000000    -0.487585   
O5       O      0.556150000000     0.418130000000     0.123220000000    -0.480092   
O6       O      0.494510000000     0.349280000000     0.121800000000    -0.491448   
O7       O      0.517030000000     0.433260000000     0.180100000000    -0.487944   
O8       O      0.553640000000     0.404810000000     0.166250000000    -0.486619   
O9       O      0.378930000000     0.478470000000     0.426260000000    -0.489279   
O10      O      0.422090000000     0.524550000000     0.428710000000    -0.484838   
O11      O      0.383610000000     0.478470000000     0.364410000000    -0.489513   
O12      O      0.335880000000     0.494800000000     0.371990000000    -0.4871     
O13      O      0.405490000000     0.566830000000     0.414620000000    -0.480188   
O14      O      0.337910000000     0.505940000000     0.415470000000    -0.491912   
O15      O      0.423530000000     0.526470000000     0.360500000000    -0.486733   
O16      O      0.394800000000     0.562750000000     0.370770000000    -0.48677    
O17      O      0.851020000000     0.382530000000     0.162290000000    -0.485723   
O18      O      0.859820000000     0.430720000000     0.157870000000    -0.489377   
O19      O      0.851760000000     0.384570000000     0.094220000000    -0.485882   
O20      O      0.791880000000     0.342690000000     0.107250000000    -0.480736   
O21      O      0.795530000000     0.414140000000     0.150730000000    -0.4876     
O22      O      0.786800000000     0.345950000000     0.151400000000    -0.486152   
O23      O      0.854370000000     0.430460000000     0.096030000000    -0.48939    
O24      O      0.785940000000     0.403490000000     0.107180000000    -0.491407   
O25      O      0.037650000000     0.475060000000     0.344530000000    -0.488      
O26      O      0.029370000000     0.514760000000     0.348800000000    -0.490646   
O27      O      0.034300000000     0.474880000000     0.412900000000    -0.483552   
O28      O      0.092640000000     0.490320000000     0.400980000000    -0.47982    
O29      O      0.093960000000     0.562150000000     0.358990000000    -0.487233   
O30      O      0.103050000000     0.504050000000     0.358030000000    -0.487047   
O31      O      0.031870000000     0.518250000000     0.410700000000    -0.487882   
O32      O      0.100250000000     0.559000000000     0.402920000000    -0.492014   
O33      O      0.507180000000     0.040320000000     0.108380000000    -0.492793   
O34      O      0.467540000000     0.048110000000     0.100850000000    -0.484162   
O35      O      0.508300000000     0.048860000000     0.174160000000    -0.484016   
O36      O      0.554180000000     0.102780000000     0.153260000000    -0.478899   
O37      O      0.476800000000     0.103190000000     0.121240000000    -0.48005    
O38      O      0.545000000000     0.113090000000     0.111820000000    -0.492323   
O39      O      0.460640000000     0.040340000000     0.166250000000    -0.492198   
O40      O      0.496220000000     0.113600000000     0.162750000000    -0.492879   
O41      O      0.421960000000     0.868040000000     0.416640000000    -0.491241   
O42      O      0.374740000000     0.861410000000     0.422380000000    -0.484833   
O43      O      0.415990000000     0.861960000000     0.351220000000    -0.484935   
O44      O      0.405430000000     0.805650000000     0.369530000000    -0.480372   
O45      O      0.329640000000     0.804960000000     0.403750000000    -0.480447   
O46      O      0.389060000000     0.796610000000     0.411820000000    -0.491712   
O47      O      0.374720000000     0.867450000000     0.356890000000    -0.491398   
O48      O      0.337220000000     0.795750000000     0.361540000000    -0.491819   
O49      O      0.467850000000     0.390270000000     0.613200000000    -0.486999   
O50      O      0.513570000000     0.433950000000     0.611730000000    -0.483455   
O51      O      0.468730000000     0.394090000000     0.675030000000    -0.491287   
O52      O      0.486450000000     0.346680000000     0.665860000000    -0.487621   
O53      O      0.556150000000     0.418130000000     0.623220000000    -0.48009    
O54      O      0.494510000000     0.349280000000     0.621800000000    -0.491471   
O55      O      0.517030000000     0.433260000000     0.680100000000    -0.487938   
O56      O      0.553640000000     0.404810000000     0.666250000000    -0.486611   
O57      O      0.378930000000     0.478470000000     0.926260000000    -0.489262   
O58      O      0.422090000000     0.524550000000     0.928710000000    -0.484814   
O59      O      0.383610000000     0.478460000000     0.864410000000    -0.489282   
O60      O      0.335880000000     0.494800000000     0.871990000000    -0.487111   
O61      O      0.405490000000     0.566830000000     0.914620000000    -0.480164   
O62      O      0.337910000000     0.505940000000     0.915470000000    -0.491898   
O63      O      0.423530000000     0.526470000000     0.860500000000    -0.486677   
O64      O      0.394800000000     0.562750000000     0.870770000000    -0.486755   
O65      O      0.851020000000     0.382530000000     0.662290000000    -0.48576    
O66      O      0.859830000000     0.430720000000     0.657870000000    -0.489429   
O67      O      0.851770000000     0.384570000000     0.594220000000    -0.485722   
O68      O      0.791880000000     0.342690000000     0.607250000000    -0.480758   
O69      O      0.795530000000     0.414140000000     0.650730000000    -0.48756    
O70      O      0.786800000000     0.345960000000     0.651400000000    -0.486244   
O71      O      0.854370000000     0.430460000000     0.596030000000    -0.489374   
O72      O      0.785940000000     0.403480000000     0.607180000000    -0.491419   
O73      O      0.037650000000     0.475060000000     0.844540000000    -0.488326   
O74      O      0.029380000000     0.514760000000     0.848800000000    -0.490685   
O75      O      0.034300000000     0.474880000000     0.912900000000    -0.483754   
O76      O      0.092640000000     0.490320000000     0.900980000000    -0.479981   
O77      O      0.093960000000     0.562160000000     0.858990000000    -0.487029   
O78      O      0.103050000000     0.504050000000     0.858030000000    -0.48719    
O79      O      0.031870000000     0.518240000000     0.910700000000    -0.488094   
O80      O      0.100250000000     0.559000000000     0.902920000000    -0.491955   
O81      O      0.507180000000     0.040320000000     0.608380000000    -0.492689   
O82      O      0.467540000000     0.048110000000     0.600850000000    -0.484254   
O83      O      0.508300000000     0.048860000000     0.674160000000    -0.484008   
O84      O      0.554180000000     0.102780000000     0.653250000000    -0.479181   
O85      O      0.476800000000     0.103190000000     0.621230000000    -0.479794   
O86      O      0.545000000000     0.113090000000     0.611820000000    -0.492495   
O87      O      0.460640000000     0.040340000000     0.666250000000    -0.492202   
O88      O      0.496220000000     0.113600000000     0.662750000000    -0.492799   
O89      O      0.421960000000     0.868050000000     0.916640000000    -0.491328   
O90      O      0.374740000000     0.861410000000     0.922380000000    -0.484899   
O91      O      0.415990000000     0.861960000000     0.851220000000    -0.484977   
O92      O      0.405430000000     0.805650000000     0.869530000000    -0.480389   
O93      O      0.329640000000     0.804960000000     0.903750000000    -0.480455   
O94      O      0.389060000000     0.796610000000     0.911820000000    -0.491744   
O95      O      0.374720000000     0.867440000000     0.856890000000    -0.4916     
O96      O      0.337220000000     0.795750000000     0.861540000000    -0.491814   


