data_structure

_audit_creation_method RASPA-1.0
_audit_creation_date 2023-5-22
_audit_author_name 'Poobodin Mano'

_cell_length_a    67.3934
_cell_length_b    67.6059
_cell_length_c    41.0476
_cell_angle_alpha 90.0253
_cell_angle_beta  89.9753
_cell_angle_gamma 120.373
_cell_volume      161352

_symmetry_cell_setting          triclinic
_symmetry_space_group_name_Hall 'P 1'
_symmetry_space_group_name_H-M  'P 1'
_symmetry_Int_Tables_number     1

_symmetry_equiv_pos_as_xyz 'x,y,z'

loop_
_atom_site_label
_atom_site_type_symbol
_atom_site_fract_x
_atom_site_fract_y
_atom_site_fract_z
_atom_site_charge
C1       C      0.376770000000     0.517340000000     0.109810000000     0.356359   
C2       C      0.433710000000     0.517620000000     0.037320000000     0.356028   
C3       C      0.375270000000     0.519370000000     0.007580000000     0.358407   
C4       C      0.435800000000     0.574690000000     0.078700000000     0.355876   
C5       C      0.595470000000     0.460190000000     0.892330000000     0.356901   
C6       C      0.541350000000     0.463410000000     0.964050000000     0.355666   
C7       C      0.535730000000     0.402470000000     0.924760000000     0.358205   
C8       C      0.597240000000     0.455190000000     0.993480000000     0.355273   
C9       C      0.924200000000     0.795360000000     0.057520000000     0.355747   
C10      C      0.869940000000     0.737740000000     0.132070000000     0.354742   
C11      C      0.927850000000     0.798730000000     0.159350000000     0.358129   
C12      C      0.865270000000     0.791920000000     0.091040000000     0.35637    
C13      C      0.711350000000     0.518230000000     0.279990000000     0.357265   
C14      C      0.766480000000     0.574960000000     0.208610000000     0.356193   
C15      C      0.770520000000     0.518410000000     0.247820000000     0.358919   
C16      C      0.709850000000     0.510790000000     0.179240000000     0.355004   
C17      C      0.266320000000     0.796560000000     0.233960000000     0.356897   
C18      C      0.204350000000     0.793070000000     0.299890000000     0.355497   
C19      C      0.203190000000     0.737140000000     0.254990000000     0.357811   
C20      C      0.260390000000     0.789880000000     0.332510000000     0.35481    
C21      C      0.036390000000     0.845400000000     0.443800000000     0.357376   
C22      C      0.098150000000     0.847600000000     0.378670000000     0.355372   
C23      C      0.041820000000     0.851780000000     0.344230000000     0.356741   
C24      C      0.098190000000     0.901770000000     0.426400000000     0.355705   
C25      C      0.596500000000     0.128890000000     0.391890000000     0.357347   
C26      C      0.539130000000     0.069010000000     0.462120000000     0.355938   
C27      C      0.595880000000     0.129220000000     0.493220000000     0.357666   
C28      C      0.535960000000     0.123560000000     0.419570000000     0.355946   
C29      C      0.375890000000     0.847500000000     0.608060000000     0.356334   
C30      C      0.437450000000     0.906910000000     0.542340000000     0.355714   
C31      C      0.438610000000     0.851140000000     0.583930000000     0.357554   
C32      C      0.380710000000     0.847960000000     0.509410000000     0.355533   
C33      C      0.928670000000     0.125040000000     0.558380000000     0.354722   
C34      C      0.874100000000     0.127470000000     0.632100000000     0.355755   
C35      C      0.869860000000     0.068840000000     0.587380000000     0.358775   
C36      C      0.930400000000     0.120560000000     0.660460000000     0.358072   
C37      C      0.710120000000     0.183920000000     0.777980000000     0.35794    
C38      C      0.768460000000     0.183460000000     0.708160000000     0.356222   
C39      C      0.710000000000     0.185680000000     0.678190000000     0.355449   
C40      C      0.771230000000     0.240870000000     0.748890000000     0.356432   
C41      C      0.257430000000     0.459840000000     0.722560000000     0.356385   
C42      C      0.202360000000     0.401440000000     0.796100000000     0.355177   
C43      C      0.259650000000     0.462040000000     0.824560000000     0.358073   
C44      C      0.197510000000     0.455100000000     0.754990000000     0.356227   
C45      C      0.045930000000     0.182560000000     0.946460000000     0.355618   
C46      C      0.100080000000     0.238860000000     0.873930000000     0.355533   
C47      C      0.104590000000     0.182620000000     0.913650000000     0.359322   
C48      C      0.043420000000     0.174620000000     0.845550000000     0.35608    
C49      C      0.842430000000     0.791190000000     0.561580000000     0.356511   
C50      C      0.840350000000     0.734100000000     0.633010000000     0.356489   
C51      C      0.900140000000     0.788800000000     0.590810000000     0.357608   
C52      C      0.849360000000     0.798720000000     0.662180000000     0.355578   
C53      C      0.789830000000     0.514280000000     0.773150000000     0.356545   
C54      C      0.788500000000     0.572100000000     0.703660000000     0.356098   
C55      C      0.786640000000     0.512170000000     0.672360000000     0.356967   
C56      C      0.732910000000     0.517550000000     0.747920000000     0.356325   
C57      C      0.180780000000     0.122200000000     0.057800000000     0.356069   
C58      C      0.238240000000     0.123540000000     0.131010000000     0.355249   
C59      C      0.177520000000     0.120080000000     0.159150000000     0.357546   
C60      C      0.185120000000     0.066340000000     0.086210000000     0.355823   
C61      C      0.457290000000     0.184100000000     0.280410000000     0.357128   
C62      C      0.400700000000     0.181910000000     0.208650000000     0.3555     
C63      C      0.456680000000     0.242720000000     0.249670000000     0.358864   
C64      C      0.465380000000     0.191140000000     0.179590000000     0.355266   
C65      C      0.847610000000     0.456650000000     0.387610000000     0.355786   
C66      C      0.904290000000     0.456860000000     0.461330000000     0.35551    
C67      C      0.843740000000     0.454490000000     0.488960000000     0.357137   
C68      C      0.850180000000     0.399920000000     0.417480000000     0.355752   
C69      C      0.114920000000     0.509610000000     0.614010000000     0.358391   
C70      C      0.065740000000     0.511940000000     0.540780000000     0.357559   
C71      C      0.124460000000     0.574600000000     0.581770000000     0.365595   
C72      C      0.135030000000     0.526240000000     0.514990000000     0.352883   
C73      C      0.121910000000     0.181510000000     0.441980000000     0.357348   
C74      C      0.122990000000     0.239540000000     0.371560000000     0.356572   
C75      C      0.120010000000     0.178340000000     0.341410000000     0.356261   
C76      C      0.064780000000     0.184300000000     0.411780000000     0.356035   
C77      C      0.184150000000     0.463560000000     0.233680000000     0.357049   
C78      C      0.181770000000     0.403120000000     0.301150000000     0.356327   
C79      C      0.240350000000     0.458720000000     0.256480000000     0.35679    
C80      C      0.188430000000     0.464480000000     0.333720000000     0.356681   
C81      C      0.458470000000     0.850010000000     0.105170000000     0.355687   
C82      C      0.457940000000     0.910110000000     0.038430000000     0.354769   
C83      C      0.453270000000     0.849260000000     0.006070000000     0.355689   
C84      C      0.403690000000     0.857520000000     0.087430000000     0.355583   
C85      C      0.513300000000     0.128480000000     0.891480000000     0.356353   
C86      C      0.511910000000     0.071700000000     0.963140000000     0.35619    
C87      C      0.571590000000     0.126860000000     0.920400000000     0.358358   
C88      C      0.520030000000     0.135660000000     0.991940000000     0.355407   
C89      C      0.781760000000     0.844920000000     0.948690000000     0.357824   
C90      C      0.729920000000     0.844910000000     0.876680000000     0.359981   
C91      C      0.789150000000     0.908270000000     0.914420000000     0.363275   
C92      C      0.798350000000     0.858910000000     0.848120000000     0.353189   
C93      C      0.513240000000     0.787580000000     0.723840000000     0.354964   
C94      C      0.567550000000     0.787360000000     0.799530000000     0.355023   
C95      C      0.506610000000     0.786070000000     0.825370000000     0.358379   
C96      C      0.511540000000     0.729530000000     0.757390000000     0.356328   
C97      C      0.124260000000     0.598650000000     0.112780000000     0.356272   
C98      C      0.065560000000     0.538350000000     0.044660000000     0.355384   
C99      C      0.126870000000     0.596790000000     0.013690000000     0.356478   
C100     C      0.120020000000     0.538080000000     0.091520000000     0.356351   
C101     C      0.847860000000     0.379340000000     0.890260000000     0.357414   
C102     C      0.903610000000     0.433760000000     0.964450000000     0.356249   
C103     C      0.848790000000     0.438350000000     0.920880000000     0.35804    
C104     C      0.838710000000     0.376870000000     0.990460000000     0.355457   
C105     C      0.173610000000     0.041450000000     0.568500000000     0.357427   
C106     C      0.233950000000     0.101940000000     0.634800000000     0.355694   
C107     C      0.178920000000     0.103940000000     0.590180000000     0.356917   
C108     C      0.173560000000     0.045960000000     0.667120000000     0.356348   
C109     C      0.456500000000     0.266420000000     0.778770000000     0.357357   
C110     C      0.397210000000     0.208330000000     0.708830000000     0.355752   
C111     C      0.457770000000     0.266160000000     0.677620000000     0.357364   
C112     C      0.452310000000     0.206540000000     0.751510000000     0.356139   
C113     C      0.182090000000     0.709740000000     0.730730000000     0.356223   
C114     C      0.181370000000     0.768690000000     0.799730000000     0.354901   
C115     C      0.185030000000     0.711870000000     0.830250000000     0.355981   
C116     C      0.237020000000     0.771200000000     0.751860000000     0.355151   
C117     C      0.130490000000     0.928650000000     0.943770000000     0.363479   
C118     C      0.123390000000     0.872460000000     0.876390000000     0.357505   
C119     C      0.062440000000     0.870840000000     0.914550000000     0.363994   
C120     C      0.110630000000     0.926870000000     0.844490000000     0.357567   
C121     C      0.514630000000     0.380190000000     0.393390000000     0.35698    
C122     C      0.514190000000     0.438980000000     0.461970000000     0.356394   
C123     C      0.516060000000     0.381130000000     0.493920000000     0.35673    
C124     C      0.571260000000     0.440730000000     0.420160000000     0.356545   
C125     C      0.455200000000     0.594840000000     0.608970000000     0.356345   
C126     C      0.455660000000     0.542820000000     0.535730000000     0.360795   
C127     C      0.393140000000     0.537650000000     0.574980000000     0.360917   
C128     C      0.442690000000     0.597840000000     0.508410000000     0.35315    
C129     C      0.850040000000     0.045030000000     0.060030000000     0.356898   
C130     C      0.849970000000     0.103650000000     0.129810000000     0.355718   
C131     C      0.850870000000     0.045350000000     0.160580000000     0.356267   
C132     C      0.906670000000     0.105160000000     0.087520000000     0.356307   
C133     C      0.796080000000     0.262590000000     0.274910000000     0.35701    
C134     C      0.794660000000     0.210100000000     0.203370000000     0.360162   
C135     C      0.731730000000     0.205960000000     0.242700000000     0.364206   
C136     C      0.780230000000     0.264140000000     0.174900000000     0.353618   
C137     C      0.789070000000     0.931090000000     0.443890000000     0.357025   
C138     C      0.730180000000     0.871690000000     0.374400000000     0.356039   
C139     C      0.790780000000     0.929980000000     0.343660000000     0.356691   
C140     C      0.784420000000     0.870380000000     0.418580000000     0.356096   
C141     C      0.516300000000     0.711560000000     0.223020000000     0.356459   
C142     C      0.568180000000     0.764350000000     0.297010000000     0.360551   
C143     C      0.512200000000     0.769230000000     0.253770000000     0.360767   
C144     C      0.499360000000     0.709030000000     0.322560000000     0.353431   
C145     C      0.679900000000     0.823520000000     0.329530000000    -0.0640433  
C146     C      0.661180000000     0.824790000000     0.342200000000     0.0224571  
C147     C      0.665430000000     0.841650000000     0.365710000000    -0.0637317  
C148     C      0.687830000000     0.856830000000     0.376290000000     0.0212553  
C149     C      0.706480000000     0.855590000000     0.363420000000    -0.097362   
C150     C      0.702300000000     0.838800000000     0.339940000000     0.0212076  
C151     C      0.637350000000     0.808740000000     0.330750000000     0.0232718  
C152     C      0.632980000000     0.802260000000     0.297770000000    -0.0648517  
C153     C      0.610550000000     0.787520000000     0.286910000000     0.023057   
C154     C      0.591980000000     0.779070000000     0.308730000000    -0.101042   
C155     C      0.596290000000     0.785330000000     0.341710000000     0.0222693  
C156     C      0.618730000000     0.799940000000     0.352630000000    -0.0648856  
C157     C      0.811200000000     0.997990000000     0.217870000000    -0.0645984  
C158     C      0.826750000000     0.995890000000     0.238330000000     0.0226301  
C159     C      0.850480000000     0.010130000000     0.232850000000    -0.0638675  
C160     C      0.858460000000     0.026340000000     0.207660000000     0.020932   
C161     C      0.842830000000     0.028470000000     0.187430000000    -0.0980723  
C162     C      0.819140000000     0.014060000000     0.192730000000     0.0215273  
C163     C      0.818010000000     0.979160000000     0.265610000000     0.0226877  
C164     C      0.799730000000     0.976820000000     0.284940000000    -0.0646571  
C165     C      0.790980000000     0.960820000000     0.310160000000     0.0216722  
C166     C      0.800240000000     0.946720000000     0.316670000000    -0.0984905  
C167     C      0.818620000000     0.949080000000     0.297550000000     0.0210358  
C168     C      0.827480000000     0.965220000000     0.272290000000    -0.063992   
C169     C      0.815280000000     0.133350000000     0.137180000000    -0.0638497  
C170     C      0.827650000000     0.150070000000     0.161070000000     0.0224563  
C171     C      0.847400000000     0.151280000000     0.174590000000    -0.0640283  
C172     C      0.854590000000     0.136150000000     0.164510000000     0.0210271  
C173     C      0.842260000000     0.119540000000     0.140560000000    -0.0973942  
C174     C      0.822550000000     0.118310000000     0.126970000000     0.0212415  
C175     C      0.819890000000     0.166100000000     0.171880000000     0.0231118  
C176     C      0.810780000000     0.175060000000     0.149310000000    -0.0648868  
C177     C      0.802870000000     0.189570000000     0.159530000000     0.022209   
C178     C      0.804010000000     0.195590000000     0.192520000000    -0.101237   
C179     C      0.813460000000     0.187020000000     0.215050000000     0.0227276  
C180     C      0.821260000000     0.172380000000     0.204860000000    -0.0647366  
C181     C      0.441390000000     0.622510000000     0.426090000000    -0.0641949  
C182     C      0.458920000000     0.645530000000     0.429640000000     0.0225393  
C183     C      0.469930000000     0.652950000000     0.459950000000    -0.0641488  
C184     C      0.464180000000     0.637520000000     0.485740000000     0.0207733  
C185     C      0.447190000000     0.614370000000     0.481880000000    -0.0974739  
C186     C      0.435510000000     0.607090000000     0.452020000000     0.020931   
C187     C      0.467000000000     0.661390000000     0.401320000000     0.0224581  
C188     C      0.470780000000     0.654020000000     0.371160000000    -0.0641099  
C189     C      0.480710000000     0.669420000000     0.345370000000     0.0208827  
C190     C      0.486940000000     0.692520000000     0.349050000000    -0.097636   
C191     C      0.482350000000     0.699760000000     0.378740000000     0.0207902  
C192     C      0.472570000000     0.684350000000     0.404700000000    -0.0640365  
C193     C      0.478500000000     0.467680000000     0.468680000000    -0.0637994  
C194     C      0.490410000000     0.484340000000     0.492830000000     0.0224369  
C195     C      0.510300000000     0.485950000000     0.506580000000    -0.0640401  
C196     C      0.517990000000     0.471200000000     0.496570000000     0.0211146  
C197     C      0.506060000000     0.454600000000     0.472450000000    -0.0976175  
C198     C      0.486290000000     0.453030000000     0.458530000000     0.0213062  
C199     C      0.482030000000     0.499850000000     0.503760000000     0.0231626  
C200     C      0.472610000000     0.508570000000     0.481290000000    -0.0648473  
C201     C      0.464230000000     0.522670000000     0.491660000000     0.0222012  
C202     C      0.465200000000     0.528510000000     0.524700000000    -0.101342   
C203     C      0.474880000000     0.520110000000     0.547140000000     0.0229568  
C204     C      0.483130000000     0.505880000000     0.536810000000    -0.064767   
C205     C      0.142710000000     0.793300000000     0.814920000000    -0.0637289  
C206     C      0.157090000000     0.813100000000     0.833230000000     0.0227013  
C207     C      0.179540000000     0.818010000000     0.840500000000    -0.0638997  
C208     C      0.187360000000     0.803500000000     0.829780000000     0.0211557  
C209     C      0.173030000000     0.783920000000     0.811230000000    -0.0972683  
C210     C      0.150650000000     0.778970000000     0.803870000000     0.021421   
C211     C      0.148740000000     0.828620000000     0.844390000000     0.0227925  
C212     C      0.134000000000     0.832480000000     0.824570000000    -0.0640695  
C213     C      0.125820000000     0.846690000000     0.835080000000     0.022242   
C214     C      0.132400000000     0.857670000000     0.865480000000    -0.0973312  
C215     C      0.147370000000     0.854180000000     0.885200000000     0.0210909  
C216     C      0.155350000000     0.839700000000     0.874850000000    -0.0636837  
C217     C      0.493680000000     0.301220000000     0.605550000000    -0.0640009  
C218     C      0.484290000000     0.315300000000     0.599430000000     0.0227062  
C219     C      0.466340000000     0.313130000000     0.619380000000    -0.0647612  
C220     C      0.457840000000     0.297160000000     0.644660000000     0.021877   
C221     C      0.467000000000     0.282910000000     0.650600000000    -0.0989361  
C222     C      0.485050000000     0.285090000000     0.630850000000     0.0210818  
C223     C      0.492740000000     0.331980000000     0.572080000000     0.0226925  
C224     C      0.516420000000     0.346130000000     0.566010000000    -0.0640669  
C225     C      0.524130000000     0.362260000000     0.540720000000     0.021137   
C226     C      0.508300000000     0.364390000000     0.520940000000    -0.0985592  
C227     C      0.484670000000     0.350080000000     0.526840000000     0.0216342  
C228     C      0.476990000000     0.334100000000     0.552110000000    -0.0646225  
C229     C      0.135200000000     0.010550000000     0.737120000000    -0.0636659  
C230     C      0.143220000000     0.995270000000     0.742910000000     0.02248    
C231     C      0.161830000000     0.997530000000     0.724450000000    -0.0641463  
C232     C      0.171850000000     0.014260000000     0.700310000000     0.0211835  
C233     C      0.163580000000     0.029230000000     0.694070000000    -0.0963475  
C234     C      0.145280000000     0.027370000000     0.712880000000     0.0207375  
C235     C      0.132470000000     0.977020000000     0.768100000000     0.022879   
C236     C      0.126390000000     0.981570000000     0.798820000000    -0.0642947  
C237     C      0.118290000000     0.964900000000     0.823360000000     0.0217252  
C238     C      0.116140000000     0.943400000000     0.817620000000    -0.0985242  
C239     C      0.121220000000     0.938520000000     0.786510000000     0.0216171  
C240     C      0.129230000000     0.955110000000     0.762020000000    -0.0644334  
C241     C      0.299010000000     0.137060000000     0.635180000000    -0.0638317  
C242     C      0.303570000000     0.147120000000     0.666360000000     0.0227899  
C243     C      0.284900000000     0.141990000000     0.687030000000    -0.0640433  
C244     C      0.262310000000     0.127390000000     0.676700000000     0.0214513  
C245     C      0.257850000000     0.117340000000     0.645640000000    -0.0973124  
C246     C      0.276410000000     0.122230000000     0.625020000000     0.0215456  
C247     C      0.327660000000     0.162870000000     0.677270000000     0.022823   
C248     C      0.345500000000     0.158950000000     0.668090000000    -0.0640141  
C249     C      0.368100000000     0.173790000000     0.678190000000     0.021472   
C250     C      0.373340000000     0.192740000000     0.698040000000    -0.0976058  
C251     C      0.355600000000     0.196660000000     0.707440000000     0.0216577  
C252     C      0.333030000000     0.181990000000     0.697010000000    -0.0639409  
C253     C      0.804460000000     0.319430000000     0.127360000000    -0.0642042  
C254     C      0.797740000000     0.311400000000     0.095390000000     0.0225085  
C255     C      0.783700000000     0.287680000000     0.090100000000    -0.0642294  
C256     C      0.777150000000     0.272270000000     0.116150000000     0.0209572  
C257     C      0.784720000000     0.280300000000     0.147880000000    -0.0975683  
C258     C      0.798100000000     0.304040000000     0.153300000000     0.021161   
C259     C      0.806730000000     0.327630000000     0.067580000000     0.0227219  
C260     C      0.807400000000     0.348760000000     0.068880000000    -0.0643574  
C261     C      0.817410000000     0.364650000000     0.043540000000     0.0214296  
C262     C      0.827140000000     0.359810000000     0.016630000000    -0.0978981  
C263     C      0.826130000000     0.338560000000     0.015120000000     0.0213245  
C264     C      0.815960000000     0.322610000000     0.040250000000    -0.0644769  
C265     C      0.146730000000     0.664430000000     0.888270000000    -0.0645593  
C266     C      0.162670000000     0.662720000000     0.908350000000     0.022628   
C267     C      0.186300000000     0.677170000000     0.902260000000    -0.0637284  
C268     C      0.193780000000     0.693290000000     0.876920000000     0.0205936  
C269     C      0.177720000000     0.695110000000     0.857200000000    -0.0976666  
C270     C      0.154150000000     0.680400000000     0.863070000000     0.0216112  
C271     C      0.154330000000     0.646230000000     0.935940000000     0.0227395  
C272     C      0.136100000000     0.643880000000     0.955380000000    -0.0647214  
C273     C      0.127340000000     0.627830000000     0.980490000000     0.0217559  
C274     C      0.136580000000     0.613690000000     0.986900000000    -0.0983692  
C275     C      0.155040000000     0.616170000000     0.967860000000     0.0208592  
C276     C      0.163900000000     0.632370000000     0.942610000000    -0.0638714  
C277     C      0.968580000000     0.469930000000     0.966780000000    -0.0651925  
C278     C      0.972650000000     0.477290000000     0.999440000000     0.0244624  
C279     C      0.953720000000     0.469860000000     0.020520000000    -0.0652884  
C280     C      0.931320000000     0.455680000000     0.009150000000     0.0216838  
C281     C      0.927330000000     0.448440000000     0.976530000000    -0.0990487  
C282     C      0.946180000000     0.455590000000     0.955490000000     0.0221492  
C283     C      0.996490000000     0.492790000000     0.011380000000     0.0171904  
C284     C      0.014840000000     0.490230000000     0.000360000000    -0.0602018  
C285     C      0.037260000000     0.505020000000     0.011190000000     0.0193362  
C286     C      0.041820000000     0.522580000000     0.033490000000    -0.096167   
C287     C      0.023530000000     0.525070000000     0.044770000000     0.0190538  
C288     C      0.001130000000     0.510410000000     0.033740000000    -0.0580888  
C289     C      0.512570000000     0.681130000000     0.712970000000    -0.0641676  
C290     C      0.489060000000     0.666260000000     0.706360000000     0.022959   
C291     C      0.472960000000     0.671430000000     0.719780000000    -0.0638979  
C292     C      0.480230000000     0.691390000000     0.738050000000     0.0222848  
C293     C      0.503750000000     0.706840000000     0.742770000000    -0.0976753  
C294     C      0.519830000000     0.701320000000     0.730650000000     0.0222639  
C295     C      0.481490000000     0.646520000000     0.683530000000     0.0228481  
C296     C      0.495120000000     0.648260000000     0.656420000000    -0.0638674  
C297     C      0.487030000000     0.630860000000     0.633050000000     0.0223737  
C298     C      0.464980000000     0.611530000000     0.635890000000    -0.0970846  
C299     C      0.451640000000     0.609280000000     0.663430000000     0.0216311  
C300     C      0.459890000000     0.626470000000     0.687170000000    -0.0639647  
C301     C      0.830100000000     0.968470000000     0.943940000000    -0.0649052  
C302     C      0.815640000000     0.972740000000     0.963780000000     0.023261   
C303     C      0.791960000000     0.956610000000     0.964280000000    -0.0646251  
C304     C      0.783160000000     0.936130000000     0.946830000000     0.0228297  
C305     C      0.797860000000     0.931320000000     0.928530000000    -0.0997982  
C306     C      0.821300000000     0.947970000000     0.926500000000     0.023156   
C307     C      0.825420000000     0.992760000000     0.986180000000     0.0225344  
C308     C      0.845600000000     0.998740000000     0.003730000000    -0.064235   
C309     C      0.853790000000     0.016070000000     0.027140000000     0.0215966  
C310     C      0.842030000000     0.027860000000     0.033580000000    -0.0977342  
C311     C      0.822240000000     0.022430000000     0.015440000000     0.0211029  
C312     C      0.813980000000     0.005000000000     0.991990000000    -0.0639713  
C313     C      0.632380000000     0.821500000000     0.806870000000    -0.0636412  
C314     C      0.636380000000     0.810630000000     0.833180000000     0.0223289  
C315     C      0.617400000000     0.792120000000     0.848540000000    -0.0638206  
C316     C      0.595020000000     0.784660000000     0.837780000000     0.0208774  
C317     C      0.591140000000     0.795430000000     0.811310000000    -0.0964877  
C318     C      0.610030000000     0.813920000000     0.795980000000     0.0211144  
C319     C      0.660260000000     0.818620000000     0.844460000000     0.0232919  
C320     C      0.678340000000     0.826030000000     0.821850000000    -0.064949   
C321     C      0.700890000000     0.834320000000     0.832370000000     0.0223821  
C322     C      0.705890000000     0.835190000000     0.865720000000    -0.101155   
C323     C      0.687850000000     0.827360000000     0.888360000000     0.0228577  
C324     C      0.665270000000     0.819240000000     0.877860000000    -0.0648388  
C325     C      0.455320000000     0.164710000000     0.809430000000    -0.0640912  
C326     C      0.476060000000     0.166110000000     0.800160000000     0.0227365  
C327     C      0.488000000000     0.179540000000     0.772960000000    -0.0640255  
C328     C      0.479820000000     0.192010000000     0.756210000000     0.0210693  
C329     C      0.459620000000     0.191380000000     0.766480000000    -0.0968453  
C330     C      0.447210000000     0.177240000000     0.792810000000     0.0214186  
C331     C      0.486040000000     0.155140000000     0.820530000000     0.0226354  
C332     C      0.509470000000     0.167410000000     0.828930000000    -0.064012   
C333     C      0.518440000000     0.158360000000     0.851170000000     0.021209   
C334     C      0.504220000000     0.136800000000     0.865420000000    -0.0966112  
C335     C      0.481030000000     0.124050000000     0.856020000000     0.0213392  
C336     C      0.472010000000     0.133170000000     0.833850000000    -0.0639637  
C337     C      0.460830000000     0.806680000000     0.160630000000    -0.064143   
C338     C      0.481250000000     0.820250000000     0.178120000000     0.0224825  
C339     C      0.493930000000     0.843980000000     0.172000000000    -0.0637366  
C340     C      0.486450000000     0.853840000000     0.148600000000     0.0207112  
C341     C      0.466240000000     0.840110000000     0.130780000000    -0.0965347  
C342     C      0.453430000000     0.816490000000     0.137250000000     0.021295   
C343     C      0.489790000000     0.809250000000     0.201110000000     0.0231831  
C344     C      0.474410000000     0.791210000000     0.221450000000    -0.0646928  
C345     C      0.481910000000     0.778840000000     0.239840000000     0.0227494  
C346     C      0.504930000000     0.784260000000     0.238280000000    -0.0984885  
C347     C      0.520570000000     0.803060000000     0.219340000000     0.0223169  
C348     C      0.513080000000     0.815430000000     0.200950000000    -0.0644846  
C349     C      0.450040000000     0.809740000000     0.937850000000    -0.0638318  
C350     C      0.473100000000     0.820680000000     0.927520000000     0.0225131  
C351     C      0.489320000000     0.841020000000     0.943080000000    -0.0645592  
C352     C      0.482710000000     0.850260000000     0.968320000000     0.0215308  
C353     C      0.459690000000     0.839460000000     0.978610000000    -0.0976163  
C354     C      0.443360000000     0.819120000000     0.963100000000     0.0207292  
C355     C      0.480500000000     0.811230000000     0.900510000000     0.0229527  
C356     C      0.473300000000     0.787760000000     0.898980000000    -0.0642958  
C357     C      0.481620000000     0.779390000000     0.874480000000     0.0215122  
C358     C      0.497150000000     0.794340000000     0.851010000000    -0.0998745  
C359     C      0.503880000000     0.817680000000     0.852190000000     0.0221349  
C360     C      0.495680000000     0.826020000000     0.876620000000    -0.0651453  
C361     C      0.499900000000     0.021370000000     0.016880000000    -0.0643186  
C362     C      0.488060000000     0.002710000000     0.995520000000     0.0228436  
C363     C      0.483740000000     0.006990000000     0.963500000000    -0.0640743  
C364     C      0.491190000000     0.029370000000     0.953080000000     0.021638   
C365     C      0.503250000000     0.047960000000     0.974380000000    -0.0986907  
C366     C      0.507480000000     0.043730000000     0.006390000000     0.0213524  
C367     C      0.480350000000     0.978920000000     0.006560000000     0.022474   
C368     C      0.494240000000     0.974440000000     0.027320000000    -0.063601   
C369     C      0.486960000000     0.952100000000     0.037770000000     0.0208789  
C370     C      0.465700000000     0.933750000000     0.027520000000    -0.096739   
C371     C      0.451840000000     0.938160000000     0.006720000000     0.020852   
C372     C      0.459040000000     0.960490000000     0.996440000000    -0.0639153  
C373     C      0.130080000000     0.506890000000     0.159800000000    -0.0651637  
C374     C      0.145160000000     0.500920000000     0.145370000000     0.0226549  
C375     C      0.150750000000     0.505680000000     0.112260000000    -0.0643049  
C376     C      0.142110000000     0.517270000000     0.094190000000     0.0210883  
C377     C      0.127520000000     0.523880000000     0.108980000000    -0.0968448  
C378     C      0.121180000000     0.518080000000     0.141730000000     0.0219358  
C379     C      0.156390000000     0.491530000000     0.165920000000     0.0228354  
C380     C      0.170800000000     0.504960000000     0.191330000000    -0.0653367  
C381     C      0.180320000000     0.495970000000     0.212630000000     0.0223105  
C382     C      0.175270000000     0.473200000000     0.209300000000    -0.0974625  
C383     C      0.161120000000     0.459830000000     0.183480000000     0.0215175  
C384     C      0.151890000000     0.469030000000     0.161710000000    -0.064548   
C385     C      0.143020000000     0.129760000000     0.564040000000    -0.0644261  
C386     C      0.156100000000     0.143800000000     0.537950000000     0.0228566  
C387     C      0.177560000000     0.146020000000     0.531100000000    -0.0645109  
C388     C      0.185300000000     0.133670000000     0.548930000000     0.0220531  
C389     C      0.171820000000     0.118940000000     0.574150000000    -0.0990632  
C390     C      0.150870000000     0.117510000000     0.582090000000     0.0216115  
C391     C      0.146690000000     0.154580000000     0.516120000000     0.0228963  
C392     C      0.123970000000     0.141710000000     0.504740000000    -0.0644728  
C393     C      0.115780000000     0.150750000000     0.481260000000     0.0218896  
C394     C      0.130090000000     0.172900000000     0.468800000000    -0.0985318  
C395     C      0.152520000000     0.186150000000     0.481080000000     0.0217598  
C396     C      0.160780000000     0.177030000000     0.504430000000    -0.0643871  
C397     C      0.134700000000     0.290830000000     0.320060000000    -0.0639387  
C398     C      0.147440000000     0.309170000000     0.341620000000     0.0227282  
C399     C      0.151950000000     0.304280000000     0.373160000000    -0.0639342  
C400     C      0.144100000000     0.281680000000     0.382800000000     0.0216475  
C401     C      0.131380000000     0.263430000000     0.361230000000    -0.097476   
C402     C      0.126690000000     0.268210000000     0.329810000000     0.021069   
C403     C      0.156150000000     0.333300000000     0.331230000000     0.0227149  
C404     C      0.177940000000     0.350930000000     0.341330000000    -0.0641461  
C405     C      0.186140000000     0.373580000000     0.331720000000     0.0213995  
C406     C      0.172840000000     0.379150000000     0.311540000000    -0.098193   
C407     C      0.151110000000     0.361610000000     0.301280000000     0.0213646  
C408     C      0.142810000000     0.338940000000     0.311110000000    -0.0638409  
C409     C      0.147430000000     0.669990000000     0.661580000000    -0.0635823  
C410     C      0.158870000000     0.657640000000     0.656700000000     0.022264   
C411     C      0.178410000000     0.663230000000     0.675590000000    -0.0638924  
C412     C      0.186060000000     0.680380000000     0.699220000000     0.0211595  
C413     C      0.174370000000     0.692380000000     0.704570000000    -0.0964426  
C414     C      0.155140000000     0.687230000000     0.685260000000     0.0208142  
C415     C      0.149750000000     0.637990000000     0.633670000000     0.0237266  
C416     C      0.126040000000     0.622040000000     0.632440000000    -0.0651283  
C417     C      0.117720000000     0.601930000000     0.614190000000     0.0238628  
C418     C      0.132900000000     0.597340000000     0.596790000000    -0.101399   
C419     C      0.156450000000     0.613830000000     0.596530000000     0.0236612  
C420     C      0.164780000000     0.633960000000     0.614780000000    -0.0652576  
C421     C      0.192290000000     0.497340000000     0.410740000000    -0.0641348  
C422     C      0.170800000000     0.496090000000     0.410680000000     0.0227348  
C423     C      0.155270000000     0.484280000000     0.385320000000    -0.0646468  
C424     C      0.161000000000     0.473850000000     0.360630000000     0.0217949  
C425     C      0.182490000000     0.475170000000     0.360530000000    -0.0975354  
C426     C      0.198150000000     0.487110000000     0.385730000000     0.0210839  
C427     C      0.164050000000     0.506210000000     0.437510000000     0.0223726  
C428     C      0.167150000000     0.502110000000     0.470130000000    -0.0641118  
C429     C      0.158430000000     0.509400000000     0.495380000000     0.0210353  
C430     C      0.146660000000     0.521150000000     0.488540000000    -0.0973885  
C431     C      0.144540000000     0.526240000000     0.456020000000     0.0206497  
C432     C      0.153040000000     0.518730000000     0.430730000000    -0.0641127  
C433     C      0.853700000000     0.353360000000     0.371540000000    -0.0641002  
C434     C      0.830330000000     0.336530000000     0.368150000000     0.0228771  
C435     C      0.813760000000     0.340040000000     0.383850000000    -0.0636642  
C436     C      0.820310000000     0.360180000000     0.401330000000     0.021911   
C437     C      0.843510000000     0.377430000000     0.402980000000    -0.0972731  
C438     C      0.860180000000     0.373680000000     0.388440000000     0.0221339  
C439     C      0.823140000000     0.316340000000     0.346350000000     0.0228225  
C440     C      0.835360000000     0.318520000000     0.317430000000    -0.0637829  
C441     C      0.827260000000     0.300480000000     0.295100000000     0.0224238  
C442     C      0.806540000000     0.280000000000     0.300840000000    -0.096535   
C443     C      0.794780000000     0.277350000000     0.330220000000     0.0216661  
C444     C      0.803100000000     0.295230000000     0.352880000000    -0.0638707  
C445     C      0.969050000000     0.491310000000     0.470530000000    -0.0646161  
C446     C      0.972880000000     0.479280000000     0.495380000000     0.0240169  
C447     C      0.953830000000     0.459890000000     0.509030000000    -0.0647821  
C448     C      0.931550000000     0.452720000000     0.498120000000     0.0212713  
C449     C      0.927830000000     0.464680000000     0.473160000000    -0.0966729  
C450     C      0.946790000000     0.484030000000     0.459450000000     0.0213554  
C451     C      0.996620000000     0.486980000000     0.507010000000     0.0175854  
C452     C      0.015130000000     0.495750000000     0.484950000000    -0.0607144  
C453     C      0.037520000000     0.503590000000     0.495920000000     0.0198949  
C454     C      0.041910000000     0.502660000000     0.529160000000    -0.0983821  
C455     C      0.023440000000     0.493530000000     0.551200000000     0.0198662  
C456     C      0.001050000000     0.485850000000     0.540270000000    -0.0587254  
C457     C      0.494770000000     0.304260000000     0.276350000000    -0.0645668  
C458     C      0.480580000000     0.306820000000     0.299050000000     0.0229276  
C459     C      0.457760000000     0.288880000000     0.302880000000    -0.0644649  
C460     C      0.449690000000     0.268380000000     0.285690000000     0.0219029  
C461     C      0.464240000000     0.265430000000     0.264240000000    -0.0988904  
C462     C      0.486660000000     0.283780000000     0.259050000000     0.0222343  
C463     C      0.490070000000     0.327150000000     0.320790000000     0.0227442  
C464     C      0.511610000000     0.335240000000     0.335640000000    -0.0643683  
C465     C      0.519730000000     0.352830000000     0.358640000000     0.0218647  
C466     C      0.506570000000     0.362820000000     0.367240000000    -0.0980636  
C467     C      0.485390000000     0.355320000000     0.351660000000     0.0214781  
C468     C      0.477160000000     0.337570000000     0.328730000000    -0.0642506  
C469     C      0.490500000000     0.161860000000     0.130100000000    -0.064477   
C470     C      0.494160000000     0.172780000000     0.099790000000     0.0227215  
C471     C      0.489190000000     0.190520000000     0.096250000000    -0.0644464  
C472     C      0.480440000000     0.196990000000     0.122470000000     0.0217719  
C473     C      0.476120000000     0.185560000000     0.152470000000    -0.0978746  
C474     C      0.481400000000     0.168060000000     0.156110000000     0.0215771  
C475     C      0.501910000000     0.164750000000     0.071560000000     0.0228057  
C476     C      0.520630000000     0.161140000000     0.074400000000    -0.0645078  
C477     C      0.526970000000     0.152230000000     0.048230000000     0.0217487  
C478     C      0.514420000000     0.146390000000     0.019010000000    -0.0980526  
C479     C      0.495890000000     0.150270000000     0.016070000000     0.0217118  
C480     C      0.489800000000     0.159520000000     0.042000000000    -0.064583   
C481     C      0.150160000000     0.005560000000     0.054750000000    -0.06339    
C482     C      0.166440000000     0.003640000000     0.035520000000     0.0224666  
C483     C      0.189360000000     0.021890000000     0.035660000000    -0.0640015  
C484     C      0.195540000000     0.041960000000     0.053030000000     0.0217712  
C485     C      0.179050000000     0.044140000000     0.071120000000    -0.0970691  
C486     C      0.156450000000     0.025540000000     0.072540000000     0.0213402  
C487     C      0.159170000000     0.983530000000     0.013560000000     0.0234494  
C488     C      0.141440000000     0.961540000000     0.022650000000    -0.0647609  
C489     C      0.132790000000     0.943370000000     0.000420000000     0.0229987  
C490     C      0.141860000000     0.946710000000     0.968760000000    -0.100512   
C491     C      0.160410000000     0.968280000000     0.960220000000     0.023418   
C492     C      0.168870000000     0.986510000000     0.982260000000    -0.0647587  
C493     C      0.169120000000     0.158700000000     0.217090000000    -0.064654   
C494     C      0.151080000000     0.142920000000     0.237010000000     0.0227024  
C495     C      0.141480000000     0.119330000000     0.230910000000    -0.0639599  
C496     C      0.150050000000     0.111740000000     0.205700000000     0.0210195  
C497     C      0.168210000000     0.127620000000     0.185980000000    -0.0987111  
C498     C      0.177530000000     0.151160000000     0.191870000000     0.0217885  
C499     C      0.142770000000     0.151290000000     0.264300000000     0.0225721  
C500     C      0.158670000000     0.169040000000     0.284490000000    -0.0644657  
C501     C      0.151170000000     0.177660000000     0.309510000000     0.0213475  
C502     C      0.127570000000     0.168820000000     0.314900000000    -0.0979599  
C503     C      0.111590000000     0.150920000000     0.294960000000     0.0207952  
C504     C      0.119130000000     0.142150000000     0.269960000000    -0.063782   
C505     C      0.302750000000     0.160220000000     0.141200000000    -0.0637506  
C506     C      0.307260000000     0.147870000000     0.164730000000     0.0225879  
C507     C      0.288730000000     0.127510000000     0.177260000000    -0.0638959  
C508     C      0.266290000000     0.119710000000     0.166490000000     0.0209613  
C509     C      0.261900000000     0.131990000000     0.142780000000    -0.0963954  
C510     C      0.280340000000     0.152310000000     0.130250000000     0.0212485  
C511     C      0.331200000000     0.156160000000     0.176010000000     0.022794   
C512     C      0.349710000000     0.166430000000     0.153990000000    -0.0642609  
C513     C      0.372240000000     0.174650000000     0.164610000000     0.0212124  
C514     C      0.376780000000     0.172620000000     0.197440000000    -0.0985163  
C515     C      0.358340000000     0.162090000000     0.219440000000     0.0216818  
C516     C      0.335800000000     0.154020000000     0.208870000000    -0.0640726  
C517     C      0.828110000000     0.510980000000     0.837890000000    -0.064141   
C518     C      0.815240000000     0.487780000000     0.847080000000     0.0226764  
C519     C      0.793540000000     0.473810000000     0.832880000000    -0.0643446  
C520     C      0.785170000000     0.482620000000     0.809360000000     0.0218281  
C521     C      0.798250000000     0.505630000000     0.799590000000    -0.0980496  
C522     C      0.819640000000     0.519860000000     0.814450000000     0.0213231  
C523     C      0.824900000000     0.477580000000     0.869510000000     0.0228916  
C524     C      0.847600000000     0.482330000000     0.865450000000    -0.0643903  
C525     C      0.855730000000     0.470310000000     0.883340000000     0.0217079  
C526     C      0.841350000000     0.453350000000     0.905720000000    -0.0984198  
C527     C      0.819100000000     0.449500000000     0.911150000000     0.0220929  
C528     C      0.810930000000     0.461470000000     0.893160000000    -0.0645966  
C529     C      0.785460000000     0.475480000000     0.601440000000    -0.0641023  
C530     C      0.809000000000     0.485840000000     0.593850000000     0.0227219  
C531     C      0.824920000000     0.504700000000     0.612400000000    -0.0648141  
C532     C      0.817540000000     0.513150000000     0.637770000000     0.0217657  
C533     C      0.794040000000     0.503010000000     0.645200000000    -0.0988575  
C534     C      0.778040000000     0.484060000000     0.626820000000     0.0211198  
C535     C      0.817140000000     0.477410000000     0.566430000000     0.0226622  
C536     C      0.808610000000     0.453850000000     0.561770000000    -0.0639871  
C537     C      0.817190000000     0.446240000000     0.536600000000     0.0210426  
C538     C      0.834320000000     0.462080000000     0.515560000000    -0.0987169  
C539     C      0.842540000000     0.485580000000     0.519970000000     0.0216781  
C540     C      0.834080000000     0.493150000000     0.545090000000    -0.0647266  
C541     C      0.839760000000     0.830090000000     0.497890000000    -0.064263   
C542     C      0.816360000000     0.818140000000     0.489350000000     0.022806   
C543     C      0.801920000000     0.796370000000     0.503000000000    -0.0642587  
C544     C      0.810540000000     0.787150000000     0.525650000000     0.0215687  
C545     C      0.833720000000     0.799590000000     0.535170000000    -0.0973796  
C546     C      0.848330000000     0.820930000000     0.520580000000     0.0214319  
C547     C      0.806820000000     0.829310000000     0.468530000000     0.0226658  
C548     C      0.786260000000     0.828430000000     0.477460000000    -0.0641294  
C549     C      0.778600000000     0.841170000000     0.460420000000     0.0214567  
C550     C      0.791290000000     0.855020000000     0.434020000000    -0.0967435  
C551     C      0.811290000000     0.855140000000     0.424100000000     0.0211044  
C552     C      0.819020000000     0.842440000000     0.441260000000    -0.064014   
C553     C      0.818970000000     0.822030000000     0.713090000000    -0.0645019  
C554     C      0.833440000000     0.830790000000     0.740390000000     0.0227322  
C555     C      0.853590000000     0.829450000000     0.741430000000    -0.0643959  
C556     C      0.859030000000     0.819370000000     0.715780000000     0.0214194  
C557     C      0.844270000000     0.810180000000     0.688850000000    -0.0980868  
C558     C      0.824280000000     0.811750000000     0.687680000000     0.0213527  
C559     C      0.826740000000     0.840100000000     0.768340000000     0.0224172  
C560     C      0.817920000000     0.854780000000     0.763220000000    -0.0641668  
C561     C      0.809550000000     0.861740000000     0.789360000000     0.0209265  
C562     C      0.809620000000     0.853940000000     0.821040000000    -0.0971784  
C563     C      0.819140000000     0.839900000000     0.826300000000     0.0208797  
C564     C      0.827710000000     0.833140000000     0.800250000000    -0.0641259  
C565     C      0.827660000000     0.683120000000     0.685700000000    -0.0642722  
C566     C      0.816910000000     0.664830000000     0.663470000000     0.0228252  
C567     C      0.813380000000     0.669560000000     0.631290000000    -0.0642103  
C568     C      0.820610000000     0.692010000000     0.621540000000     0.0219289  
C569     C      0.831690000000     0.710250000000     0.643670000000    -0.0986265  
C570     C      0.835060000000     0.705580000000     0.675870000000     0.0213328  
C571     C      0.809620000000     0.640980000000     0.673740000000     0.0226704  
C572     C      0.823200000000     0.636690000000     0.695390000000    -0.0638758  
C573     C      0.816340000000     0.614330000000     0.705130000000     0.0214553  
C574     C      0.795860000000     0.595730000000     0.693210000000    -0.0973389  
C575     C      0.782330000000     0.599920000000     0.671430000000     0.0212426  
C576     C      0.789080000000     0.622300000000     0.661900000000    -0.0640941  
C577     C      0.003460000000     0.144210000000     0.010260000000    -0.0577338  
C578     C      0.992660000000     0.156620000000     0.018910000000     0.0162758  
C579     C      0.000920000000     0.178570000000     0.005530000000    -0.0577642  
C580     C      0.018920000000     0.187480000000     0.982920000000     0.0186681  
C581     C      0.028920000000     0.174560000000     0.973160000000    -0.0943042  
C582     C      0.021370000000     0.153080000000     0.987610000000     0.0184301  
C583     C      0.971590000000     0.145720000000     0.039360000000     0.0249264  
C584     C      0.952340000000     0.147280000000     0.030190000000    -0.0653809  
C585     C      0.931490000000     0.134720000000     0.046700000000     0.0220964  
C586     C      0.929440000000     0.120390000000     0.072810000000    -0.0976586  
C587     C      0.948920000000     0.119620000000     0.083040000000     0.0216511  
C588     C      0.969800000000     0.132130000000     0.066400000000    -0.065312   
C589     C      0.149240000000     0.180410000000     0.966620000000    -0.0644185  
C590     C      0.143930000000     0.157620000000     0.962260000000     0.0230406  
C591     C      0.127170000000     0.143900000000     0.939130000000    -0.0646445  
C592     C      0.115120000000     0.152400000000     0.922020000000     0.0224117  
C593     C      0.119560000000     0.174760000000     0.927790000000    -0.0992258  
C594     C      0.137160000000     0.188880000000     0.949590000000     0.0220221  
C595     C      0.154230000000     0.147660000000     0.984010000000     0.0226377  
C596     C      0.177600000000     0.160290000000     0.992830000000    -0.0640674  
C597     C      0.186520000000     0.151720000000     0.016060000000     0.0212232  
C598     C      0.172190000000     0.130460000000     0.031040000000    -0.0979347  
C599     C      0.149060000000     0.117530000000     0.021440000000     0.0215775  
C600     C      0.140190000000     0.126010000000     0.998160000000    -0.0641932  
C601     C      0.302070000000     0.501540000000     0.663700000000    -0.0642017  
C602     C      0.308660000000     0.487580000000     0.647100000000     0.0225892  
C603     C      0.297140000000     0.463970000000     0.654120000000    -0.0639819  
C604     C      0.279920000000     0.454690000000     0.677960000000     0.0210473  
C605     C      0.274000000000     0.468890000000     0.695290000000    -0.0983086  
C606     C      0.284960000000     0.492310000000     0.687500000000     0.021558   
C607     C      0.328700000000     0.498130000000     0.624610000000     0.0230602  
C608     C      0.332320000000     0.516190000000     0.603800000000    -0.0645699  
C609     C      0.352840000000     0.528370000000     0.586310000000     0.022562   
C610     C      0.370150000000     0.522710000000     0.589260000000    -0.0984697  
C611     C      0.366000000000     0.503830000000     0.608540000000     0.0223562  
C612     C      0.345500000000     0.491670000000     0.626040000000    -0.0643103  
C613     C      0.173340000000     0.491040000000     0.723370000000    -0.0637228  
C614     C      0.153170000000     0.474510000000     0.707460000000     0.0229676  
C615     C      0.146700000000     0.451250000000     0.710310000000    -0.0642603  
C616     C      0.160760000000     0.444880000000     0.726730000000     0.0225459  
C617     C      0.181320000000     0.461530000000     0.741340000000    -0.0978325  
C618     C      0.187130000000     0.484580000000     0.740380000000     0.0221031  
C619     C      0.140160000000     0.481700000000     0.685790000000     0.0230136  
C620     C      0.139070000000     0.501540000000     0.692620000000    -0.063923   
C621     C      0.129870000000     0.510090000000     0.669870000000     0.0220241  
C622     C      0.121130000000     0.498740000000     0.640110000000    -0.0964979  
C623     C      0.120760000000     0.478130000000     0.634130000000     0.0229175  
C624     C      0.130350000000     0.469810000000     0.656560000000    -0.063832   
C625     C      0.134910000000     0.289880000000     0.818980000000    -0.064272   
C626     C      0.143320000000     0.308300000000     0.841060000000     0.0228698  
C627     C      0.137060000000     0.303610000000     0.874090000000    -0.0640961  
C628     C      0.122800000000     0.281070000000     0.884750000000     0.0217722  
C629     C      0.114660000000     0.262740000000     0.862680000000    -0.0985591  
C630     C      0.120830000000     0.267360000000     0.829700000000     0.0212559  
C631     C      0.158590000000     0.332260000000     0.829650000000     0.0225113  
C632     C      0.175280000000     0.337200000000     0.805460000000    -0.0635842  
C633     C      0.189460000000     0.359650000000     0.794510000000     0.0210845  
C634     C      0.187420000000     0.377710000000     0.807690000000    -0.0963053  
C635     C      0.170910000000     0.372880000000     0.831990000000     0.0211657  
C636     C      0.156590000000     0.350410000000     0.842760000000    -0.0638832  
C637     C      0.665740000000     0.145580000000     0.840260000000    -0.0642404  
C638     C      0.656480000000     0.159230000000     0.849930000000     0.0227934  
C639     C      0.666040000000     0.181500000000     0.837200000000    -0.0644805  
C640     C      0.683880000000     0.189660000000     0.814510000000     0.0219828  
C641     C      0.692640000000     0.175780000000     0.804070000000    -0.0985306  
C642     C      0.683720000000     0.153810000000     0.817600000000     0.0214889  
C643     C      0.635840000000     0.149850000000     0.871200000000     0.0228735  
C644     C      0.617110000000     0.127710000000     0.865660000000    -0.0643964  
C645     C      0.596520000000     0.119910000000     0.882660000000     0.0218118  
C646     C      0.594230000000     0.134060000000     0.905610000000    -0.0985709  
C647     C      0.613280000000     0.155750000000     0.912350000000     0.022035   
C648     C      0.633880000000     0.163590000000     0.895270000000    -0.0644637  
C649     C      0.797980000000     0.303770000000     0.769840000000    -0.0642557  
C650     C      0.811930000000     0.305730000000     0.796570000000     0.0227177  
C651     C      0.813970000000     0.286740000000     0.805320000000    -0.0641281  
C652     C      0.801470000000     0.265940000000     0.788820000000     0.0215354  
C653     C      0.786680000000     0.263680000000     0.763160000000    -0.0974518  
C654     C      0.785510000000     0.282940000000     0.753230000000     0.0213609  
C655     C      0.822570000000     0.326610000000     0.817270000000     0.0227697  
C656     C      0.844670000000     0.335160000000     0.830530000000    -0.0642377  
C657     C      0.853350000000     0.352950000000     0.853380000000     0.021644   
C658     C      0.840040000000     0.362460000000     0.863470000000    -0.0975796  
C659     C      0.818390000000     0.354620000000     0.849170000000     0.0216424  
C660     C      0.809750000000     0.336910000000     0.826310000000    -0.0642645  
C661     C      0.970700000000     0.163590000000     0.493920000000    -0.0633985  
C662     C      0.980150000000     0.150310000000     0.483260000000     0.020789   
C663     C      0.971290000000     0.128080000000     0.495860000000    -0.0634256  
C664     C      0.954060000000     0.119680000000     0.519540000000     0.0207445  
C665     C      0.945230000000     0.133250000000     0.531080000000    -0.0957899  
C666     C      0.953330000000     0.155100000000     0.517540000000     0.0203784  
C667     C      0.000530000000     0.160170000000     0.461430000000     0.0241208  
C668     C      0.002510000000     0.146870000000     0.436670000000    -0.0623856  
C669     C      0.023060000000     0.155150000000     0.419240000000     0.0208572  
C670     C      0.042030000000     0.176810000000     0.426410000000    -0.0970394  
C671     C      0.039660000000     0.190540000000     0.450000000000     0.0216874  
C672     C      0.019120000000     0.182340000000     0.467270000000    -0.0642592  
C673     C      0.794590000000     0.974940000000     0.506230000000    -0.0643046  
C674     C      0.817700000000     0.984600000000     0.515760000000     0.02282    
C675     C      0.830790000000     0.975590000000     0.502820000000    -0.0644355  
C676     C      0.821240000000     0.957840000000     0.480070000000     0.0219143  
C677     C      0.798340000000     0.948600000000     0.469860000000    -0.0980003  
C678     C      0.784950000000     0.957000000000     0.483580000000     0.0214982  
C679     C      0.828810000000     0.005060000000     0.537220000000     0.02285    
C680     C      0.825480000000     0.023680000000     0.531560000000    -0.0642861  
C681     C      0.838220000000     0.044150000000     0.548800000000     0.0217819  
C682     C      0.854460000000     0.046370000000     0.572150000000    -0.0978441  
C683     C      0.856970000000     0.027400000000     0.579000000000     0.0220458  
C684     C      0.844310000000     0.006960000000     0.561640000000    -0.0645118  
C685     C      0.988010000000     0.149900000000     0.797670000000    -0.0669065  
C686     C      0.994870000000     0.146460000000     0.766910000000     0.021146   
C687     C      0.017630000000     0.151430000000     0.762520000000    -0.0627645  
C688     C      0.033320000000     0.159980000000     0.788340000000     0.0219126  
C689     C      0.026610000000     0.164100000000     0.818810000000    -0.0989913  
C690     C      0.003770000000     0.158810000000     0.823300000000     0.0257444  
C691     C      0.978620000000     0.138870000000     0.739140000000     0.0240597  
C692     C      0.956160000000     0.120100000000     0.742280000000    -0.0655578  
C693     C      0.940550000000     0.113760000000     0.716460000000     0.0225577  
C694     C      0.947020000000     0.126380000000     0.687320000000    -0.10088    
C695     C      0.969530000000     0.145030000000     0.684140000000     0.0236266  
C696     C      0.985230000000     0.151100000000     0.709700000000    -0.067849   
C697     C      0.848190000000     0.165340000000     0.643830000000    -0.0638463  
C698     C      0.829870000000     0.152120000000     0.665280000000     0.0226652  
C699     C      0.826450000000     0.130810000000     0.675810000000    -0.0642847  
C700     C      0.840970000000     0.122970000000     0.665240000000     0.0216033  
C701     C      0.859110000000     0.136120000000     0.643630000000    -0.0984357  
C702     C      0.862590000000     0.157370000000     0.633000000000     0.0210913  
C703     C      0.814250000000     0.160350000000     0.676420000000     0.0226855  
C704     C      0.805550000000     0.156130000000     0.708430000000    -0.0640274  
C705     C      0.790570000000     0.163510000000     0.718690000000     0.0216711  
C706     C      0.784130000000     0.175480000000     0.697300000000    -0.0979334  
C707     C      0.792900000000     0.179880000000     0.665420000000     0.0213882  
C708     C      0.807700000000     0.172320000000     0.655040000000    -0.0641134  
C709     C      0.277690000000     0.804270000000     0.683400000000    -0.0650509  
C710     C      0.299080000000     0.810100000000     0.696830000000     0.0224967  
C711     C      0.300340000000     0.804730000000     0.729520000000    -0.0641194  
C712     C      0.280210000000     0.792620000000     0.748050000000     0.0207613  
C713     C      0.258670000000     0.786060000000     0.734170000000    -0.0965046  
C714     C      0.257710000000     0.792540000000     0.701940000000     0.0215321  
C715     C      0.319490000000     0.819710000000     0.675500000000     0.022993   
C716     C      0.319340000000     0.807020000000     0.648380000000    -0.0655033  
C717     C      0.337920000000     0.816020000000     0.626970000000     0.0225093  
C718     C      0.356890000000     0.838090000000     0.631910000000    -0.0990933  
C719     C      0.357170000000     0.850800000000     0.659210000000     0.0217215  
C720     C      0.338640000000     0.841540000000     0.681100000000    -0.0647128  
C721     C      0.480310000000     0.846780000000     0.640630000000    -0.0647152  
C722     C      0.478640000000     0.826140000000     0.630490000000     0.0229832  
C723     C      0.465190000000     0.814790000000     0.603040000000    -0.0646221  
C724     C      0.452920000000     0.823450000000     0.586840000000     0.0217512  
C725     C      0.453710000000     0.843450000000     0.598090000000    -0.099706   
C726     C      0.467890000000     0.855290000000     0.624680000000     0.0223638  
C727     C      0.489070000000     0.815520000000     0.650580000000     0.0226389  
C728     C      0.511290000000     0.828880000000     0.663630000000    -0.0642958  
C729     C      0.519710000000     0.819490000000     0.686310000000     0.0213844  
C730     C      0.505940000000     0.796660000000     0.696570000000    -0.0975378  
C731     C      0.484190000000     0.783030000000     0.682360000000     0.0215622  
C732     C      0.475870000000     0.792330000000     0.659510000000    -0.0642551  
C733     C      0.683550000000     0.159960000000     0.293020000000    -0.0648427  
C734     C      0.667780000000     0.167760000000     0.293910000000     0.0234544  
C735     C      0.672160000000     0.186860000000     0.274880000000    -0.0651523  
C736     C      0.692470000000     0.198650000000     0.256820000000     0.0234604  
C737     C      0.708790000000     0.191580000000     0.257460000000    -0.100254   
C738     C      0.703850000000     0.171750000000     0.274980000000     0.0232294  
C739     C      0.648050000000     0.157350000000     0.316890000000     0.022599   
C740     C      0.635270000000     0.133480000000     0.321810000000    -0.0641148  
C741     C      0.618090000000     0.124080000000     0.345680000000     0.0214424  
C742     C      0.613470000000     0.138370000000     0.365160000000    -0.0981664  
C743     C      0.625840000000     0.162130000000     0.359670000000     0.0218711  
C744     C      0.642900000000     0.171510000000     0.335820000000    -0.0643059  
C745     C      0.493830000000     0.126430000000     0.361900000000    -0.0640956  
C746     C      0.494800000000     0.146820000000     0.371720000000     0.0226508  
C747     C      0.508000000000     0.158500000000     0.399230000000    -0.0639708  
C748     C      0.520700000000     0.150450000000     0.415720000000     0.0210274  
C749     C      0.520510000000     0.130650000000     0.404890000000    -0.0970003  
C750     C      0.506560000000     0.118460000000     0.378280000000     0.0214925  
C751     C      0.483710000000     0.156780000000     0.351550000000     0.0227775  
C752     C      0.495810000000     0.180250000000     0.343820000000    -0.0641092  
C753     C      0.486770000000     0.189250000000     0.321580000000     0.0213262  
C754     C      0.465420000000     0.174990000000     0.306640000000    -0.0969436  
C755     C      0.452800000000     0.151740000000     0.315440000000     0.0216448  
C756     C      0.461890000000     0.142710000000     0.337630000000    -0.0640944  
C757     C      0.662310000000     0.147120000000     0.620410000000    -0.0644285  
C758     C      0.660660000000     0.162990000000     0.600190000000     0.0225336  
C759     C      0.675180000000     0.186550000000     0.606140000000    -0.0637767  
C760     C      0.691300000000     0.194050000000     0.631480000000     0.0207765  
C761     C      0.693040000000     0.178100000000     0.651430000000    -0.0972939  
C762     C      0.678270000000     0.154580000000     0.645750000000     0.0212958  
C763     C      0.644190000000     0.154790000000     0.572560000000     0.0229327  
C764     C      0.642050000000     0.136910000000     0.552640000000    -0.0648703  
C765     C      0.626360000000     0.128730000000     0.526950000000     0.0220344  
C766     C      0.612360000000     0.138150000000     0.520600000000    -0.0988241  
C767     C      0.614500000000     0.156110000000     0.540360000000     0.0213536  
C768     C      0.630370000000     0.164430000000     0.566060000000    -0.0641872  
C769     C      0.491070000000     0.017130000000     0.504390000000    -0.0640108  
C770     C      0.496180000000     0.999910000000     0.496550000000     0.0227414  
C771     C      0.515550000000     0.005730000000     0.477000000000    -0.0638236  
C772     C      0.529350000000     0.028110000000     0.465510000000     0.0216077  
C773     C      0.524290000000     0.045250000000     0.473640000000    -0.0975419  
C774     C      0.505050000000     0.039560000000     0.493240000000     0.0215746  
C775     C      0.481320000000     0.976010000000     0.508570000000     0.0227182  
C776     C      0.471180000000     0.971780000000     0.539690000000    -0.0636195  
C777     C      0.456930000000     0.949340000000     0.550690000000     0.0212962  
C778     C      0.452730000000     0.930640000000     0.531000000000    -0.0963003  
C779     C      0.463010000000     0.934770000000     0.500100000000     0.0214828  
C780     C      0.477020000000     0.957180000000     0.488920000000    -0.0639284  
C781     C      0.993630000000     0.807840000000     0.508350000000    -0.0673994  
C782     C      0.983160000000     0.820670000000     0.516350000000     0.0245256  
C783     C      0.990840000000     0.841900000000     0.501010000000    -0.0678399  
C784     C      0.008270000000     0.849930000000     0.477710000000     0.0250798  
C785     C      0.018530000000     0.836990000000     0.469340000000    -0.0987613  
C786     C      0.011280000000     0.816000000000     0.485160000000     0.02441    
C787     C      0.963270000000     0.811510000000     0.538950000000     0.0219968  
C788     C      0.945050000000     0.788830000000     0.535700000000    -0.0639877  
C789     C      0.924870000000     0.781110000000     0.553730000000     0.0214593  
C790     C      0.922580000000     0.795890000000     0.575490000000    -0.098112   
C791     C      0.941280000000     0.818150000000     0.580130000000     0.021818   
C792     C      0.961420000000     0.825910000000     0.561960000000    -0.0643296  
C793     C      0.127040000000     0.942320000000     0.496620000000    -0.0649909  
C794     C      0.135380000000     0.963770000000     0.481780000000     0.0225967  
C795     C      0.132860000000     0.964950000000     0.448010000000    -0.06418    
C796     C      0.121180000000     0.944790000000     0.429570000000     0.0212363  
C797     C      0.112290000000     0.923280000000     0.444640000000    -0.0966736  
C798     C      0.115790000000     0.922290000000     0.478200000000     0.0217948  
C799     C      0.145140000000     0.984540000000     0.502270000000     0.0230381  
C800     C      0.131660000000     0.985980000000     0.527150000000    -0.0654115  
C801     C      0.140860000000     0.004810000000     0.548020000000     0.0226509  
C802     C      0.163870000000     0.022420000000     0.544800000000    -0.0983892  
C803     C      0.177350000000     0.021160000000     0.519620000000     0.0217883  
C804     C      0.167940000000     0.002410000000     0.498240000000    -0.0646125  
C805     C      0.322850000000     0.812980000000     0.193680000000    -0.0657772  
C806     C      0.322570000000     0.825220000000     0.166290000000     0.0232392  
C807     C      0.303430000000     0.827770000000     0.160680000000    -0.0648676  
C808     C      0.285010000000     0.818600000000     0.182750000000     0.0219798  
C809     C      0.285370000000     0.806370000000     0.210230000000    -0.0994985  
C810     C      0.304370000000     0.803500000000     0.215270000000     0.0229848  
C811     C      0.342740000000     0.835650000000     0.144450000000     0.022456   
C812     C      0.364520000000     0.850680000000     0.157470000000    -0.0649901  
C813     C      0.384160000000     0.858500000000     0.138340000000     0.0216184  
C814     C      0.382470000000     0.851170000000     0.105890000000    -0.0965432  
C815     C      0.360580000000     0.836760000000     0.092440000000     0.0208476  
C816     C      0.340800000000     0.829170000000     0.111580000000    -0.0640069  
C817     C      0.176590000000     0.674690000000     0.231570000000    -0.0647392  
C818     C      0.162850000000     0.673260000000     0.204880000000     0.0230965  
C819     C      0.161110000000     0.692480000000     0.196560000000    -0.0649396  
C820     C      0.173700000000     0.713030000000     0.213610000000     0.0227459  
C821     C      0.188070000000     0.714720000000     0.239530000000    -0.0998271  
C822     C      0.188980000000     0.695210000000     0.248910000000     0.021934   
C823     C      0.151940000000     0.652570000000     0.183950000000     0.0227292  
C824     C      0.164890000000     0.642880000000     0.172950000000    -0.0644607  
C825     C      0.155650000000     0.625030000000     0.150320000000     0.0219918  
C826     C      0.133200000000     0.616330000000     0.138490000000    -0.096902   
C827     C      0.119890000000     0.625380000000     0.150410000000     0.0214693  
C828     C      0.129240000000     0.643470000000     0.172790000000    -0.0642272  
C829     C      0.305830000000     0.793110000000     0.389910000000    -0.0636807  
C830     C      0.310990000000     0.812600000000     0.408700000000     0.0228234  
C831     C      0.298290000000     0.823610000000     0.403140000000    -0.0638835  
C832     C      0.281630000000     0.815980000000     0.378690000000     0.0222033  
C833     C      0.276810000000     0.796800000000     0.359770000000    -0.0962772  
C834     C      0.288740000000     0.785170000000     0.365930000000     0.0218344  
C835     C      0.329690000000     0.821660000000     0.433630000000     0.0228908  
C836     C      0.334490000000     0.806810000000     0.451610000000    -0.0636831  
C837     C      0.351670000000     0.815420000000     0.475480000000     0.0218027  
C838     C      0.364070000000     0.838990000000     0.482340000000    -0.0965619  
C839     C      0.359580000000     0.853870000000     0.464250000000     0.0224162  
C840     C      0.342820000000     0.845370000000     0.439920000000    -0.0640359  
C841     C      0.162850000000     0.801050000000     0.352570000000    -0.0638798  
C842     C      0.159170000000     0.816320000000     0.333820000000     0.0227412  
C843     C      0.170520000000     0.823800000000     0.303650000000    -0.063628   
C844     C      0.185280000000     0.816330000000     0.292670000000     0.0213409  
C845     C      0.188800000000     0.801010000000     0.311400000000    -0.0963695  
C846     C      0.177390000000     0.793380000000     0.341390000000     0.0214413  
C847     C      0.143580000000     0.824410000000     0.345680000000     0.0228558  
C848     C      0.123400000000     0.809610000000     0.363040000000    -0.0638501  
C849     C      0.108790000000     0.817220000000     0.374130000000     0.0217122  
C850     C      0.113870000000     0.839710000000     0.367790000000    -0.0977238  
C851     C      0.133970000000     0.854530000000     0.350470000000     0.0214425  
C852     C      0.148730000000     0.847020000000     0.339710000000    -0.0640418  
C853     C      0.668290000000     0.479660000000     0.343110000000    -0.0640223  
C854     C      0.657270000000     0.491930000000     0.351310000000     0.0226964  
C855     C      0.665490000000     0.513840000000     0.337770000000    -0.0641501  
C856     C      0.683720000000     0.522850000000     0.315520000000     0.021687   
C857     C      0.693990000000     0.510080000000     0.306260000000    -0.0970178  
C858     C      0.686420000000     0.488620000000     0.320800000000     0.0213247  
C859     C      0.636130000000     0.481020000000     0.371640000000     0.022712   
C860     C      0.616810000000     0.482390000000     0.362210000000    -0.0642672  
C861     C      0.595980000000     0.469920000000     0.378800000000     0.021672   
C862     C      0.593990000000     0.455870000000     0.405260000000    -0.0972453  
C863     C      0.613530000000     0.455260000000     0.415690000000     0.0211759  
C864     C      0.634390000000     0.467670000000     0.398970000000    -0.0640312  
C865     C      0.815110000000     0.515660000000     0.300350000000    -0.0643002  
C866     C      0.810430000000     0.493220000000     0.294450000000     0.0228366  
C867     C      0.794030000000     0.479970000000     0.270620000000    -0.0644678  
C868     C      0.781750000000     0.488540000000     0.254290000000     0.0220686  
C869     C      0.785600000000     0.510510000000     0.261520000000    -0.0988918  
C870     C      0.802810000000     0.524210000000     0.284080000000     0.0216734  
C871     C      0.820980000000     0.483030000000     0.315290000000     0.0225903  
C872     C      0.844180000000     0.495890000000     0.324840000000    -0.0640822  
C873     C      0.853210000000     0.487030000000     0.347460000000     0.0210537  
C874     C      0.839140000000     0.465210000000     0.361070000000    -0.0980013  
C875     C      0.816220000000     0.452040000000     0.350610000000     0.0214911  
C876     C      0.807260000000     0.460820000000     0.327950000000    -0.0642047  
C877     C      0.969130000000     0.836320000000     0.998330000000    -0.0650179  
C878     C      0.976160000000     0.822240000000     0.983110000000     0.0240798  
C879     C      0.964570000000     0.798720000000     0.990710000000    -0.0649886  
C880     C      0.947000000000     0.789690000000     0.014020000000     0.02142    
C881     C      0.940770000000     0.804040000000     0.030240000000    -0.0981265  
C882     C      0.951650000000     0.827320000000     0.021630000000     0.0217269  
C883     C      0.996830000000     0.832600000000     0.961810000000     0.0179065  
C884     C      0.001060000000     0.850350000000     0.939970000000    -0.0591366  
C885     C      0.022020000000     0.862190000000     0.923360000000     0.0201939  
C886     C      0.039170000000     0.856530000000     0.928360000000    -0.0997882  
C887     C      0.034510000000     0.838050000000     0.948900000000     0.0221917  
C888     C      0.013580000000     0.826210000000     0.965430000000    -0.061148   
C889     C      0.842170000000     0.828280000000     0.057440000000    -0.0638627  
C890     C      0.821370000000     0.811650000000     0.043010000000     0.0229969  
C891     C      0.814200000000     0.788340000000     0.047550000000    -0.0642221  
C892     C      0.828140000000     0.781900000000     0.064190000000     0.0224717  
C893     C      0.849280000000     0.798590000000     0.077320000000    -0.097941   
C894     C      0.855860000000     0.821790000000     0.074680000000     0.0221543  
C895     C      0.808310000000     0.818670000000     0.021140000000     0.0228799  
C896     C      0.808190000000     0.839170000000     0.026650000000    -0.0639428  
C897     C      0.798710000000     0.847290000000     0.003670000000     0.0218612  
C898     C      0.788690000000     0.834840000000     0.975040000000    -0.0970558  
C899     C      0.787460000000     0.813700000000     0.970400000000     0.022734   
C900     C      0.797340000000     0.805800000000     0.993010000000    -0.0638964  
C901     C      0.961590000000     0.831470000000     0.234200000000    -0.0644917  
C902     C      0.978120000000     0.824660000000     0.236240000000     0.0230459  
C903     C      0.978320000000     0.809920000000     0.212290000000    -0.0652165  
C904     C      0.962110000000     0.801760000000     0.187270000000     0.0220161  
C905     C      0.945250000000     0.808110000000     0.185580000000    -0.0994547  
C906     C      0.945240000000     0.823200000000     0.209110000000     0.0215474  
C907     C      0.994580000000     0.832020000000     0.263850000000     0.0212074  
C908     C      0.006300000000     0.854900000000     0.274740000000    -0.0620746  
C909     C      0.021960000000     0.861550000000     0.300630000000     0.0208326  
C910     C      0.025980000000     0.845380000000     0.316190000000    -0.0984982  
C911     C      0.014180000000     0.822550000000     0.305330000000     0.0236385  
C912     C      0.998710000000     0.815970000000     0.279470000000    -0.0663158  
C913     C      0.801540000000     0.626240000000     0.154150000000    -0.0643612  
C914     C      0.810370000000     0.644520000000     0.176520000000     0.0228599  
C915     C      0.804300000000     0.639650000000     0.209590000000    -0.0641907  
C916     C      0.789830000000     0.617080000000     0.220000000000     0.0217746  
C917     C      0.781280000000     0.598890000000     0.197630000000    -0.0989008  
C918     C      0.787260000000     0.603690000000     0.164620000000     0.0213216  
C919     C      0.825850000000     0.668520000000     0.165350000000     0.0224241  
C920     C      0.842230000000     0.673370000000     0.140710000000    -0.0635705  
C921     C      0.856540000000     0.695840000000     0.129900000000     0.0208845  
C922     C      0.854950000000     0.714000000000     0.143660000000    -0.0962087  
C923     C      0.838780000000     0.709270000000     0.168460000000     0.0208851  
C924     C      0.824330000000     0.686780000000     0.179090000000    -0.0637987  
C925     C      0.640930000000     0.499990000000     0.832430000000    -0.064191   
C926     C      0.648320000000     0.485580000000     0.819220000000     0.0227825  
C927     C      0.636880000000     0.462380000000     0.828390000000    -0.06421    
C928     C      0.619160000000     0.454000000000     0.851330000000     0.0214184  
C929     C      0.612440000000     0.468610000000     0.865540000000    -0.0971113  
C930     C      0.623110000000     0.491560000000     0.855330000000     0.0215602  
C931     C      0.669110000000     0.495020000000     0.798240000000     0.0227308  
C932     C      0.670020000000     0.482590000000     0.771340000000    -0.0640887  
C933     C      0.690550000000     0.490330000000     0.754050000000     0.0211357  
C934     C      0.710550000000     0.510550000000     0.763490000000    -0.0969207  
C935     C      0.709400000000     0.523410000000     0.789540000000     0.0215608  
C936     C      0.688900000000     0.515750000000     0.806690000000    -0.0641307  
C937     C      0.461000000000     0.307450000000     0.845160000000    -0.064196   
C938     C      0.484520000000     0.318320000000     0.853020000000     0.0228036  
C939     C      0.498320000000     0.311030000000     0.837530000000    -0.0645286  
C940     C      0.489010000000     0.293810000000     0.813970000000     0.0220658  
C941     C      0.465680000000     0.283390000000     0.805460000000    -0.0981018  
C942     C      0.451630000000     0.290050000000     0.821690000000     0.021463   
C943     C      0.495210000000     0.338400000000     0.875230000000     0.0228708  
C944     C      0.490080000000     0.356020000000     0.871920000000    -0.0643091  
C945     C      0.502550000000     0.376470000000     0.889290000000     0.0217046  
C946     C      0.520340000000     0.379670000000     0.910420000000    -0.0984176  
C947     C      0.524580000000     0.361570000000     0.915220000000     0.0221173  
C948     C      0.512170000000     0.341140000000     0.897710000000    -0.0645323  
C949     C      0.652300000000     0.485600000000     0.042300000000    -0.0644921  
C950     C      0.645430000000     0.474180000000     0.072360000000     0.0227349  
C951     C      0.622750000000     0.455890000000     0.075980000000    -0.0643874  
C952     C      0.607170000000     0.449290000000     0.050090000000     0.0216622  
C953     C      0.613900000000     0.461140000000     0.020330000000    -0.0978581  
C954     C      0.636640000000     0.479250000000     0.016620000000     0.0215097  
C955     C      0.661620000000     0.482160000000     0.100240000000     0.0227086  
C956     C      0.684270000000     0.486660000000     0.096410000000    -0.0643443  
C957     C      0.699860000000     0.495430000000     0.122340000000     0.0215622  
C958     C      0.693170000000     0.500220000000     0.152350000000    -0.0976522  
C959     C      0.670450000000     0.495450000000     0.156260000000     0.0214699  
C960     C      0.654790000000     0.486360000000     0.130540000000    -0.0644834  
C961     C      0.284530000000     0.460670000000     0.197810000000    -0.0644337  
C962     C      0.303900000000     0.482040000000     0.205110000000     0.0227623  
C963     C      0.302730000000     0.494860000000     0.231270000000    -0.0643157  
C964     C      0.282320000000     0.486860000000     0.248950000000     0.0213679  
C965     C      0.262670000000     0.465990000000     0.240590000000    -0.0983034  
C966     C      0.264120000000     0.452770000000     0.215300000000     0.0219286  
C967     C      0.324410000000     0.491720000000     0.183610000000     0.0227971  
C968     C      0.333010000000     0.477940000000     0.171900000000    -0.0644127  
C969     C      0.350720000000     0.486510000000     0.148790000000     0.0214652  
C970     C      0.359940000000     0.508920000000     0.136760000000    -0.0987608  
C971     C      0.351900000000     0.522910000000     0.149300000000     0.0219442  
C972     C      0.334390000000     0.514440000000     0.172550000000    -0.0645022  
C973     C      0.489880000000     0.678880000000     0.145240000000    -0.0639835  
C974     C      0.490560000000     0.658630000000     0.150380000000     0.0229683  
C975     C      0.501910000000     0.657160000000     0.178310000000    -0.0639981  
C976     C      0.511460000000     0.675000000000     0.201010000000     0.0226485  
C977     C      0.509470000000     0.694490000000     0.196700000000    -0.0970474  
C978     C      0.498980000000     0.696480000000     0.168350000000     0.0219441  
C979     C      0.478000000000     0.638480000000     0.128290000000     0.0228617  
C980     C      0.457080000000     0.633650000000     0.113730000000    -0.0635959  
C981     C      0.443950000000     0.613460000000     0.096050000000     0.0221322  
C982     C      0.451190000000     0.597400000000     0.093100000000    -0.0971888  
C983     C      0.472410000000     0.602470000000     0.106460000000     0.0222534  
C984     C      0.485810000000     0.622910000000     0.123510000000    -0.064016   
C985     C      0.340300000000     0.520170000000     0.935660000000    -0.0644198  
C986     C      0.325940000000     0.496600000000     0.929590000000     0.0229131  
C987     C      0.327860000000     0.480760000000     0.949510000000    -0.0650655  
C988     C      0.343850000000     0.488260000000     0.974810000000     0.0222072  
C989     C      0.358420000000     0.511790000000     0.980690000000    -0.0998634  
C990     C      0.356500000000     0.527710000000     0.960910000000     0.0216914  
C991     C      0.309240000000     0.488350000000     0.902260000000     0.022777   
C992     C      0.294810000000     0.497440000000     0.896830000000    -0.0642459  
C993     C      0.278560000000     0.488890000000     0.871650000000     0.0215232  
C994     C      0.276650000000     0.471280000000     0.851300000000    -0.0990775  
C995     C      0.291310000000     0.462470000000     0.856500000000     0.0220594  
C996     C      0.307360000000     0.470850000000     0.881740000000    -0.0648658  
C997     C      0.505390000000     0.478660000000     0.017730000000    -0.0642522  
C998     C      0.496540000000     0.487860000000     0.995130000000     0.0228418  
C999     C      0.503140000000     0.489520000000     0.962250000000    -0.06407    
C1000    C      0.518040000000     0.481960000000     0.952210000000     0.0216901  
C1001    C      0.526480000000     0.472410000000     0.974760000000    -0.0982267  
C1002    C      0.520090000000     0.470910000000     0.007620000000     0.0211851  
C1003    C      0.480320000000     0.495470000000     0.005820000000     0.0225637  
C1004    C      0.463680000000     0.483230000000     0.029910000000    -0.0636977  
C1005    C      0.448570000000     0.490440000000     0.040170000000     0.0212391  
C1006    C      0.449590000000     0.509920000000     0.026350000000    -0.0966306  
C1007    C      0.466040000000     0.522090000000     0.002120000000     0.0212144  
C1008    C      0.481300000000     0.515010000000     0.992060000000    -0.0639225  
H1       H      0.651490000000     0.843380000000     0.375620000000     0.0482828  
H2       H      0.690550000000     0.869660000000     0.394330000000     0.0417107  
H3       H      0.716340000000     0.837360000000     0.329730000000     0.0402403  
H4       H      0.677260000000     0.810550000000     0.311790000000     0.0480985  
H5       H      0.646830000000     0.808950000000     0.280140000000     0.0484264  
H6       H      0.607730000000     0.783080000000     0.261300000000     0.0404914  
H7       H      0.582310000000     0.778980000000     0.359120000000     0.039372   
H8       H      0.621480000000     0.804220000000     0.378280000000     0.0482625  
H9       H      0.862880000000     0.009020000000     0.248380000000     0.04847    
H10      H      0.876820000000     0.037190000000     0.204070000000     0.0409322  
H11      H      0.806650000000     0.015180000000     0.177440000000     0.0407967  
H12      H      0.792820000000     0.987050000000     0.221150000000     0.0484044  
H13      H      0.792280000000     0.987530000000     0.280750000000     0.0483802  
H14      H      0.776900000000     0.959520000000     0.324570000000     0.0407914  
H15      H      0.826140000000     0.938470000000     0.302080000000     0.0408016  
H16      H      0.841470000000     0.966520000000     0.257650000000     0.0485393  
H17      H      0.857530000000     0.164130000000     0.192700000000     0.0479615  
H18      H      0.869920000000     0.137570000000     0.175330000000     0.0401609  
H19      H      0.812640000000     0.105610000000     0.108570000000     0.041737   
H20      H      0.799780000000     0.131660000000     0.126610000000     0.0483092  
H21      H      0.809840000000     0.170950000000     0.123650000000     0.0482234  
H22      H      0.795770000000     0.196020000000     0.141570000000     0.0398663  
H23      H      0.814460000000     0.191280000000     0.240670000000     0.0398764  
H24      H      0.827910000000     0.165590000000     0.222980000000     0.0482679  
H25      H      0.483670000000     0.670490000000     0.463370000000     0.048332   
H26      H      0.473450000000     0.643660000000     0.508510000000     0.0406086  
H27      H      0.422290000000     0.589350000000     0.448380000000     0.0407514  
H28      H      0.432460000000     0.616350000000     0.403100000000     0.0482726  
H29      H      0.466940000000     0.636530000000     0.367860000000     0.0482982  
H30      H      0.483980000000     0.663320000000     0.322730000000     0.0405461  
H31      H      0.486940000000     0.717450000000     0.382230000000     0.0405658  
H32      H      0.469660000000     0.690480000000     0.427580000000     0.0482059  
H33      H      0.520100000000     0.498780000000     0.524860000000     0.0480843  
H34      H      0.533370000000     0.472890000000     0.507630000000     0.0400698  
H35      H      0.476680000000     0.440330000000     0.439990000000     0.0417687  
H36      H      0.462930000000     0.465690000000     0.457910000000     0.048282   
H37      H      0.471840000000     0.504630000000     0.455590000000     0.0482353  
H38      H      0.456970000000     0.528980000000     0.473770000000     0.0393806  
H39      H      0.475750000000     0.524240000000     0.572800000000     0.0402928  
H40      H      0.489960000000     0.499240000000     0.554880000000     0.0483485  
H41      H      0.191250000000     0.833250000000     0.854060000000     0.0480258  
H42      H      0.204760000000     0.807800000000     0.835700000000     0.0397585  
H43      H      0.139150000000     0.763880000000     0.789840000000     0.0414067  
H44      H      0.125180000000     0.788670000000     0.809370000000     0.0483125  
H45      H      0.128910000000     0.824700000000     0.800690000000     0.0484054  
H46      H      0.114440000000     0.849210000000     0.819220000000     0.0421665  
H47      H      0.152640000000     0.862350000000     0.908820000000     0.0393813  
H48      H      0.166410000000     0.836920000000     0.891000000000     0.0479379  
H49      H      0.458960000000     0.323940000000     0.615600000000     0.0484219  
H50      H      0.444000000000     0.295990000000     0.659550000000     0.0405951  
H51      H      0.492480000000     0.274360000000     0.634940000000     0.0407552  
H52      H      0.507410000000     0.302390000000     0.590430000000     0.0486125  
H53      H      0.528960000000     0.345000000000     0.581150000000     0.0486691  
H54      H      0.542450000000     0.373030000000     0.536670000000     0.0408407  
H55      H      0.472020000000     0.351200000000     0.511920000000     0.040646   
H56      H      0.458640000000     0.323240000000     0.555850000000     0.0483738  
H57      H      0.168780000000     0.986400000000     0.728740000000     0.0483847  
H58      H      0.186010000000     0.015330000000     0.686360000000     0.0410685  
H59      H      0.138510000000     0.038650000000     0.708530000000     0.0415543  
H60      H      0.120840000000     0.009200000000     0.750840000000     0.0484292  
H61      H      0.128770000000     0.998300000000     0.804330000000     0.0483424  
H62      H      0.114550000000     0.969160000000     0.847150000000     0.0399487  
H63      H      0.119590000000     0.922050000000     0.781280000000     0.041192   
H64      H      0.133250000000     0.950860000000     0.738410000000     0.0483539  
H65      H      0.287690000000     0.149020000000     0.711400000000     0.0482276  
H66      H      0.248330000000     0.123810000000     0.693200000000     0.0398606  
H67      H      0.273460000000     0.114820000000     0.600850000000     0.0414263  
H68      H      0.312860000000     0.140880000000     0.618350000000     0.0482764  
H69      H      0.342020000000     0.144220000000     0.653430000000     0.048232   
H70      H      0.381430000000     0.170270000000     0.670740000000     0.03981    
H71      H      0.359170000000     0.211230000000     0.722570000000     0.0412624  
H72      H      0.319880000000     0.185840000000     0.704100000000     0.0482463  
H73      H      0.778090000000     0.281030000000     0.065740000000     0.0484102  
H74      H      0.766810000000     0.254070000000     0.111270000000     0.0407668  
H75      H      0.804160000000     0.310730000000     0.177530000000     0.0403729  
H76      H      0.815430000000     0.337580000000     0.132170000000     0.0484152  
H77      H      0.800290000000     0.353020000000     0.089570000000     0.0485245  
H78      H      0.817880000000     0.380880000000     0.045300000000     0.0410334  
H79      H      0.833430000000     0.334310000000     0.994640000000     0.0403114  
H80      H      0.815960000000     0.306620000000     0.038740000000     0.0484897  
H81      H      0.198990000000     0.676330000000     0.917450000000     0.0485892  
H82      H      0.212060000000     0.704350000000     0.872860000000     0.0405887  
H83      H      0.141320000000     0.681220000000     0.848170000000     0.0414665  
H84      H      0.128410000000     0.653290000000     0.891940000000     0.0485172  
H85      H      0.128610000000     0.654560000000     0.951260000000     0.0484826  
H86      H      0.113230000000     0.626500000000     0.994880000000     0.0412202  
H87      H      0.162560000000     0.605560000000     0.972360000000     0.0405396  
H88      H      0.177880000000     0.633710000000     0.927920000000     0.0486597  
H89      H      0.956190000000     0.474840000000     0.045930000000     0.0482065  
H90      H      0.917110000000     0.450330000000     0.025980000000     0.039548   
H91      H      0.943620000000     0.450370000000     0.930170000000     0.0411473  
H92      H      0.982680000000     0.475570000000     0.949720000000     0.0481408  
H93      H      0.011880000000     0.476650000000     0.983560000000     0.0476865  
H94      H      0.051010000000     0.502620000000     0.002200000000     0.0404479  
H95      H      0.026550000000     0.538540000000     0.061840000000     0.0427554  
H96      H      0.987520000000     0.513140000000     0.042370000000     0.045903   
H97      H      0.454760000000     0.660690000000     0.714940000000     0.0481674  
H98      H      0.467470000000     0.695320000000     0.746960000000     0.040547   
H99      H      0.538090000000     0.712870000000     0.734240000000     0.0386548  
H100     H      0.525470000000     0.677500000000     0.703860000000     0.0479142  
H101     H      0.511650000000     0.663510000000     0.652300000000     0.0481401  
H102     H      0.497620000000     0.633100000000     0.611930000000     0.0414387  
H103     H      0.434630000000     0.594410000000     0.666340000000     0.0389107  
H104     H      0.449110000000     0.624180000000     0.708030000000     0.0478792  
H105     H      0.780370000000     0.959250000000     0.979510000000     0.0485566  
H106     H      0.765000000000     0.923630000000     0.948830000000     0.0401705  
H107     H      0.833020000000     0.944800000000     0.912430000000     0.0400455  
H108     H      0.848370000000     0.980730000000     0.942600000000     0.0482431  
H109     H      0.854640000000     0.989450000000     0.000290000000     0.0484522  
H110     H      0.869110000000     0.019870000000     0.040700000000     0.0406787  
H111     H      0.812880000000     0.031310000000     0.019810000000     0.0412665  
H112     H      0.798510000000     0.000940000000     0.978660000000     0.0481903  
H113     H      0.619830000000     0.783150000000     0.868580000000     0.0479726  
H114     H      0.580770000000     0.770290000000     0.849980000000     0.0399863  
H115     H      0.607560000000     0.822650000000     0.775630000000     0.0421825  
H116     H      0.646510000000     0.836070000000     0.794840000000     0.0482693  
H117     H      0.675080000000     0.825380000000     0.795930000000     0.0483037  
H118     H      0.714430000000     0.840100000000     0.814320000000     0.0396942  
H119     H      0.691220000000     0.827930000000     0.914250000000     0.0398453  
H120     H      0.651850000000     0.813930000000     0.895990000000     0.0482991  
H121     H      0.503910000000     0.180760000000     0.765020000000     0.0484313  
H122     H      0.489700000000     0.202700000000     0.735920000000     0.0414741  
H123     H      0.431560000000     0.176370000000     0.801260000000     0.0407622  
H124     H      0.445840000000     0.154750000000     0.830480000000     0.0485604  
H125     H      0.520690000000     0.184480000000     0.819430000000     0.0484026  
H126     H      0.536410000000     0.168570000000     0.857900000000     0.0405804  
H127     H      0.469680000000     0.107350000000     0.866530000000     0.0416597  
H128     H      0.453940000000     0.123200000000     0.827570000000     0.0484272  
H129     H      0.509660000000     0.854910000000     0.185240000000     0.0482216  
H130     H      0.496620000000     0.872120000000     0.144190000000     0.0413463  
H131     H      0.437770000000     0.805440000000     0.123940000000     0.0411896  
H132     H      0.450870000000     0.788310000000     0.164290000000     0.048546   
H133     H      0.456430000000     0.786280000000     0.222510000000     0.0484352  
H134     H      0.469490000000     0.764520000000     0.254370000000     0.0407124  
H135     H      0.538440000000     0.807670000000     0.217690000000     0.040393   
H136     H      0.525330000000     0.829110000000     0.185390000000     0.0485257  
H137     H      0.507260000000     0.849680000000     0.936010000000     0.0484935  
H138     H      0.495730000000     0.865890000000     0.979860000000     0.0409572  
H139     H      0.425510000000     0.810380000000     0.970630000000     0.0406552  
H140     H      0.437150000000     0.794110000000     0.926160000000     0.0486155  
H141     H      0.461720000000     0.775990000000     0.917190000000     0.0487623  
H142     H      0.476080000000     0.761300000000     0.874090000000     0.0403232  
H143     H      0.515690000000     0.829630000000     0.834330000000     0.0406087  
H144     H      0.501280000000     0.844120000000     0.876850000000     0.0484636  
H145     H      0.474960000000     0.993090000000     0.946240000000     0.0482621  
H146     H      0.487800000000     0.032120000000     0.928200000000     0.0413007  
H147     H      0.516650000000     0.057730000000     0.023420000000     0.039967   
H148     H      0.503180000000     0.018710000000     0.041860000000     0.0481913  
H149     H      0.510910000000     0.988140000000     0.035200000000     0.0482334  
H150     H      0.498050000000     0.949200000000     0.053680000000     0.0417317  
H151     H      0.435310000000     0.924360000000     0.998540000000     0.0404461  
H152     H      0.447740000000     0.963330000000     0.980890000000     0.048101   
H153     H      0.162490000000     0.501280000000     0.100790000000     0.0497488  
H154     H      0.147240000000     0.521510000000     0.068970000000     0.0406521  
H155     H      0.109980000000     0.522930000000     0.153840000000     0.0412612  
H156     H      0.125580000000     0.503330000000     0.185340000000     0.0498148  
H157     H      0.174470000000     0.522380000000     0.194910000000     0.0497904  
H158     H      0.191130000000     0.506690000000     0.232290000000     0.0406295  
H159     H      0.157010000000     0.442250000000     0.180350000000     0.0404204  
H160     H      0.140710000000     0.458410000000     0.142260000000     0.0498123  
H161     H      0.187930000000     0.156500000000     0.510950000000     0.0486629  
H162     H      0.201560000000     0.135150000000     0.542310000000     0.0401342  
H163     H      0.140150000000     0.106320000000     0.601450000000     0.0407812  
H164     H      0.126510000000     0.127900000000     0.570060000000     0.0486197  
H165     H      0.112780000000     0.124280000000     0.512960000000     0.0487688  
H166     H      0.098380000000     0.140160000000     0.472320000000     0.0403042  
H167     H      0.163900000000     0.203300000000     0.471980000000     0.0412545  
H168     H      0.178320000000     0.187400000000     0.512970000000     0.0485065  
H169     H      0.161350000000     0.317890000000     0.390620000000     0.0483396  
H170     H      0.147850000000     0.278510000000     0.407260000000     0.0420253  
H171     H      0.116990000000     0.254480000000     0.312610000000     0.0398336  
H172     H      0.131180000000     0.293940000000     0.295440000000     0.0482149  
H173     H      0.188870000000     0.347210000000     0.356340000000     0.048132   
H174     H      0.203030000000     0.386720000000     0.339850000000     0.0400694  
H175     H      0.140440000000     0.365410000000     0.285820000000     0.0413421  
H176     H      0.125820000000     0.325900000000     0.303240000000     0.0484058  
H177     H      0.187400000000     0.653830000000     0.672880000000     0.0484467  
H178     H      0.200950000000     0.683960000000     0.713690000000     0.0410777  
H179     H      0.145860000000     0.696280000000     0.688760000000     0.041689   
H180     H      0.132430000000     0.666220000000     0.647240000000     0.0482674  
H181     H      0.114010000000     0.624500000000     0.646890000000     0.0488544  
H182     H      0.099460000000     0.589550000000     0.614840000000     0.0400379  
H183     H      0.168550000000     0.610820000000     0.583200000000     0.0394673  
H184     H      0.183100000000     0.646100000000     0.614770000000     0.0484009  
H185     H      0.138470000000     0.482730000000     0.384880000000     0.0486368  
H186     H      0.148580000000     0.464830000000     0.341490000000     0.0405795  
H187     H      0.214860000000     0.488460000000     0.386210000000     0.0405595  
H188     H      0.204600000000     0.506380000000     0.429980000000     0.0485699  
H189     H      0.175430000000     0.492390000000     0.476080000000     0.0484403  
H190     H      0.160350000000     0.505250000000     0.520240000000     0.0402457  
H191     H      0.135560000000     0.535270000000     0.450020000000     0.0409925  
H192     H      0.150630000000     0.522340000000     0.405800000000     0.0484321  
H193     H      0.795580000000     0.327750000000     0.381480000000     0.048133   
H194     H      0.807090000000     0.362700000000     0.412190000000     0.0402909  
H195     H      0.878250000000     0.386650000000     0.389680000000     0.0387892  
H196     H      0.867040000000     0.351100000000     0.360590000000     0.0477724  
H197     H      0.850640000000     0.334530000000     0.311120000000     0.0480556  
H198     H      0.836590000000     0.303060000000     0.272520000000     0.0417849  
H199     H      0.778820000000     0.261640000000     0.335350000000     0.0390236  
H200     H      0.793510000000     0.292630000000     0.375180000000     0.047902   
H201     H      0.956120000000     0.450000000000     0.527860000000     0.0479885  
H202     H      0.917270000000     0.437650000000     0.509030000000     0.0401089  
H203     H      0.944420000000     0.493660000000     0.440280000000     0.041591   
H204     H      0.983240000000     0.506550000000     0.459830000000     0.0480846  
H205     H      0.012350000000     0.496480000000     0.459110000000     0.0478005  
H206     H      0.051410000000     0.510430000000     0.478330000000     0.0407483  
H207     H      0.026330000000     0.492720000000     0.577000000000     0.0409903  
H208     H      0.987290000000     0.479480000000     0.558020000000     0.0458297  
H209     H      0.446460000000     0.290220000000     0.320370000000     0.0485703  
H210     H      0.432290000000     0.254540000000     0.290140000000     0.040055   
H211     H      0.498230000000     0.282030000000     0.242560000000     0.0411611  
H212     H      0.512350000000     0.317910000000     0.272560000000     0.0484676  
H213     H      0.521840000000     0.327380000000     0.330430000000     0.0485847  
H214     H      0.536160000000     0.358270000000     0.370190000000     0.040478   
H215     H      0.474910000000     0.362760000000     0.357760000000     0.0411359  
H216     H      0.460580000000     0.331810000000     0.317500000000     0.0483987  
H217     H      0.491960000000     0.199270000000     0.073130000000     0.0488396  
H218     H      0.476510000000     0.210530000000     0.119000000000     0.0405601  
H219     H      0.478310000000     0.159000000000     0.179010000000     0.039718   
H220     H      0.493980000000     0.148000000000     0.133400000000     0.0488219  
H221     H      0.530280000000     0.165120000000     0.096920000000     0.0488756  
H222     H      0.541320000000     0.149400000000     0.051140000000     0.0404671  
H223     H      0.485950000000     0.146000000000     0.993780000000     0.0396953  
H224     H      0.475180000000     0.161940000000     0.039270000000     0.0488504  
H225     H      0.202490000000     0.020880000000     0.021820000000     0.0479792  
H226     H      0.213170000000     0.055970000000     0.051780000000     0.0397027  
H227     H      0.143370000000     0.026800000000     0.086190000000     0.04059    
H228     H      0.132290000000     0.992060000000     0.054990000000     0.0482536  
H229     H      0.133870000000     0.958430000000     0.046720000000     0.0483443  
H230     H      0.118550000000     0.926860000000     0.007740000000     0.0396884  
H231     H      0.167660000000     0.971420000000     0.935910000000     0.039628   
H232     H      0.182290000000     0.003200000000     0.974090000000     0.0483054  
H233     H      0.127650000000     0.106770000000     0.246000000000     0.0487368  
H234     H      0.142490000000     0.093500000000     0.201650000000     0.0404805  
H235     H      0.191460000000     0.163840000000     0.177030000000     0.0407994  
H236     H      0.176660000000     0.176980000000     0.220860000000     0.048515   
H237     H      0.176990000000     0.176230000000     0.281040000000     0.048414   
H238     H      0.163920000000     0.191370000000     0.324550000000     0.0407313  
H239     H      0.093300000000     0.143720000000     0.298620000000     0.0409618  
H240     H      0.106490000000     0.128560000000     0.254650000000     0.0487501  
H241     H      0.291580000000     0.117380000000     0.195040000000     0.0481031  
H242     H      0.252420000000     0.103920000000     0.176490000000     0.0401639  
H243     H      0.277450000000     0.162210000000     0.112090000000     0.0420125  
H244     H      0.316500000000     0.176170000000     0.131420000000     0.0482792  
H245     H      0.346820000000     0.167980000000     0.128410000000     0.0481734  
H246     H      0.386100000000     0.182570000000     0.147040000000     0.0399395  
H247     H      0.361360000000     0.160400000000     0.244940000000     0.0411673  
H248     H      0.322030000000     0.146500000000     0.226610000000     0.0482303  
H249     H      0.783340000000     0.455790000000     0.839060000000     0.0485981  
H250     H      0.768590000000     0.471240000000     0.798390000000     0.0404403  
H251     H      0.830070000000     0.537680000000     0.807430000000     0.041161   
H252     H      0.844840000000     0.522190000000     0.848580000000     0.0482833  
H253     H      0.858730000000     0.494510000000     0.847260000000     0.0484592  
H254     H      0.873000000000     0.473680000000     0.878680000000     0.04004    
H255     H      0.807660000000     0.436600000000     0.928350000000     0.0414315  
H256     H      0.793460000000     0.457670000000     0.897130000000     0.0485444  
H257     H      0.843180000000     0.512850000000     0.607490000000     0.0484217  
H258     H      0.830320000000     0.527700000000     0.651580000000     0.0406128  
H259     H      0.759820000000     0.475860000000     0.632080000000     0.0406385  
H260     H      0.772790000000     0.461010000000     0.587410000000     0.0486202  
H261     H      0.795660000000     0.441330000000     0.577970000000     0.0486006  
H262     H      0.810500000000     0.428020000000     0.533720000000     0.0407056  
H263     H      0.855630000000     0.498220000000     0.504050000000     0.0406491  
H264     H      0.840760000000     0.511390000000     0.547740000000     0.0483595  
H265     H      0.783860000000     0.786650000000     0.496620000000     0.0484289  
H266     H      0.798900000000     0.770610000000     0.536400000000     0.0414914  
H267     H      0.866300000000     0.830900000000     0.527390000000     0.0404763  
H268     H      0.851280000000     0.847010000000     0.488140000000     0.0483785  
H269     H      0.776590000000     0.818710000000     0.498550000000     0.0485122  
H270     H      0.763080000000     0.840690000000     0.468600000000     0.040835   
H271     H      0.821370000000     0.865600000000     0.403760000000     0.0414349  
H272     H      0.834800000000     0.843260000000     0.433580000000     0.0483295  
H273     H      0.865110000000     0.836180000000     0.762110000000     0.0484094  
H274     H      0.874590000000     0.818440000000     0.717290000000     0.040766   
H275     H      0.812600000000     0.804880000000     0.667180000000     0.0402489  
H276     H      0.803180000000     0.822530000000     0.711780000000     0.048543   
H277     H      0.817160000000     0.860590000000     0.738910000000     0.0483975  
H278     H      0.802320000000     0.872580000000     0.784590000000     0.0409429  
H279     H      0.819460000000     0.833650000000     0.850480000000     0.040346   
H280     H      0.834230000000     0.821690000000     0.804930000000     0.048384   
H281     H      0.805460000000     0.655990000000     0.613380000000     0.0483171  
H282     H      0.817900000000     0.695130000000     0.596510000000     0.0414085  
H283     H      0.843450000000     0.719290000000     0.693510000000     0.0396083  
H284     H      0.830280000000     0.680100000000     0.710820000000     0.048097   
H285     H      0.839320000000     0.650590000000     0.704560000000     0.0482074  
H286     H      0.827170000000     0.611600000000     0.721830000000     0.0416781  
H287     H      0.766370000000     0.585910000000     0.661990000000     0.0400737  
H288     H      0.778010000000     0.624950000000     0.645600000000     0.0481471  
H289     H      0.993120000000     0.188650000000     0.012010000000     0.0458241  
H290     H      0.024470000000     0.204140000000     0.972290000000     0.0427406  
H291     H      0.028790000000     0.142740000000     0.980630000000     0.0416067  
H292     H      0.997360000000     0.127160000000     0.019810000000     0.0458488  
H293     H      0.953040000000     0.157360000000     0.009250000000     0.0486744  
H294     H      0.916780000000     0.135710000000     0.038300000000     0.0405037  
H295     H      0.947850000000     0.108770000000     0.103170000000     0.0410626  
H296     H      0.984420000000     0.130790000000     0.074250000000     0.0483988  
H297     H      0.122920000000     0.126370000000     0.934920000000     0.048517   
H298     H      0.101720000000     0.141160000000     0.905250000000     0.0411808  
H299     H      0.141000000000     0.206210000000     0.954490000000     0.040095   
H300     H      0.161900000000     0.191370000000     0.984450000000     0.0485855  
H301     H      0.188890000000     0.176940000000     0.982130000000     0.0483522  
H302     H      0.204440000000     0.162020000000     0.022930000000     0.0413628  
H303     H      0.137600000000     0.101060000000     0.032510000000     0.0405414  
H304     H      0.122060000000     0.115990000000     0.992270000000     0.0486128  
H305     H      0.301680000000     0.452720000000     0.641540000000     0.0481562  
H306     H      0.271690000000     0.436560000000     0.683390000000     0.0411318  
H307     H      0.280740000000     0.503690000000     0.700400000000     0.0406422  
H308     H      0.310790000000     0.519840000000     0.659290000000     0.0484738  
H309     H      0.319540000000     0.521340000000     0.601750000000     0.0482117  
H310     H      0.355490000000     0.542750000000     0.571470000000     0.0407122  
H311     H      0.379010000000     0.499030000000     0.611250000000     0.0403242  
H312     H      0.343370000000     0.477980000000     0.642030000000     0.0484772  
H313     H      0.131040000000     0.437950000000     0.699190000000     0.0480141  
H314     H      0.155760000000     0.426920000000     0.727450000000     0.0388053  
H315     H      0.202970000000     0.497790000000     0.751320000000     0.0402283  
H316     H      0.179170000000     0.509140000000     0.721440000000     0.0482039  
H317     H      0.145870000000     0.510860000000     0.715170000000     0.0479833  
H318     H      0.130180000000     0.525950000000     0.675190000000     0.0390685  
H319     H      0.114270000000     0.469110000000     0.611270000000     0.0417527  
H320     H      0.131110000000     0.454690000000     0.650030000000     0.0482276  
H321     H      0.143460000000     0.317310000000     0.891880000000     0.0482597  
H322     H      0.118410000000     0.278000000000     0.910360000000     0.041253   
H323     H      0.114700000000     0.253560000000     0.812080000000     0.0399743  
H324     H      0.139010000000     0.292840000000     0.793290000000     0.048204   
H325     H      0.177600000000     0.323740000000     0.795200000000     0.0481855  
H326     H      0.202130000000     0.362880000000     0.775860000000     0.0418485  
H327     H      0.168870000000     0.386460000000     0.842480000000     0.0403406  
H328     H      0.143720000000     0.347240000000     0.861040000000     0.0481308  
H329     H      0.659120000000     0.192340000000     0.843780000000     0.0485804  
H330     H      0.690430000000     0.206690000000     0.804560000000     0.0404869  
H331     H      0.690190000000     0.142770000000     0.810060000000     0.0410298  
H332     H      0.658880000000     0.128420000000     0.849870000000     0.0483263  
H333     H      0.617970000000     0.116790000000     0.847080000000     0.0485235  
H334     H      0.582130000000     0.103070000000     0.876990000000     0.0402747  
H335     H      0.612050000000     0.166990000000     0.930020000000     0.041257   
H336     H      0.648120000000     0.180620000000     0.900390000000     0.0484162  
H337     H      0.824350000000     0.287570000000     0.826000000000     0.0484242  
H338     H      0.802770000000     0.251400000000     0.796980000000     0.0406388  
H339     H      0.774310000000     0.281700000000     0.733430000000     0.0413899  
H340     H      0.796280000000     0.318180000000     0.762280000000     0.0484129  
H341     H      0.855060000000     0.327740000000     0.823760000000     0.0482359  
H342     H      0.870150000000     0.358740000000     0.863880000000     0.0414283  
H343     H      0.807750000000     0.361670000000     0.856410000000     0.0405067  
H344     H      0.792570000000     0.330580000000     0.816880000000     0.0484945  
H345     H      0.978370000000     0.117520000000     0.488490000000     0.0479516  
H346     H      0.948100000000     0.102740000000     0.529450000000     0.0407527  
H347     H      0.946770000000     0.165910000000     0.525890000000     0.0416529  
H348     H      0.977050000000     0.180700000000     0.484450000000     0.0478016  
H349     H      0.988370000000     0.129820000000     0.431380000000     0.0470245  
H350     H      0.024370000000     0.144210000000     0.401120000000     0.0416617  
H351     H      0.053970000000     0.207340000000     0.456000000000     0.0407294  
H352     H      0.018250000000     0.192940000000     0.486370000000     0.0491419  
H353     H      0.848730000000     0.982850000000     0.509330000000     0.0485624  
H354     H      0.831970000000     0.951670000000     0.469970000000     0.0404394  
H355     H      0.767230000000     0.950150000000     0.476190000000     0.0410433  
H356     H      0.784050000000     0.981440000000     0.515980000000     0.0485153  
H357     H      0.813820000000     0.022820000000     0.512710000000     0.0485773  
H358     H      0.835880000000     0.058470000000     0.543050000000     0.0402259  
H359     H      0.869290000000     0.028590000000     0.596980000000     0.0415515  
H360     H      0.847020000000     0.992790000000     0.566800000000     0.0485391  
H361     H      0.023310000000     0.148810000000     0.739050000000     0.0488627  
H362     H      0.050830000000     0.163920000000     0.784220000000     0.0406776  
H363     H      0.998110000000     0.161740000000     0.846570000000     0.0375237  
H364     H      0.970630000000     0.146400000000     0.801630000000     0.0490592  
H365     H      0.950690000000     0.110350000000     0.764730000000     0.0489161  
H366     H      0.923300000000     0.099310000000     0.719550000000     0.0395321  
H367     H      0.975020000000     0.155010000000     0.661890000000     0.0388139  
H368     H      0.002360000000     0.165780000000     0.706760000000     0.0507245  
H369     H      0.812310000000     0.119960000000     0.691840000000     0.0481633  
H370     H      0.837770000000     0.106430000000     0.673690000000     0.0402091  
H371     H      0.876510000000     0.167920000000     0.616470000000     0.0408133  
H372     H      0.851590000000     0.181990000000     0.635600000000     0.048078   
H373     H      0.810490000000     0.147320000000     0.725750000000     0.0481321  
H374     H      0.784190000000     0.160010000000     0.743490000000     0.0413544  
H375     H      0.788150000000     0.188990000000     0.648330000000     0.0399463  
H376     H      0.813720000000     0.175550000000     0.630080000000     0.0481815  
H377     H      0.316720000000     0.808990000000     0.740220000000     0.0495701  
H378     H      0.281430000000     0.787880000000     0.772850000000     0.0407361  
H379     H      0.241400000000     0.787790000000     0.690540000000     0.0415821  
H380     H      0.276390000000     0.808300000000     0.658230000000     0.049694   
H381     H      0.304740000000     0.790110000000     0.643710000000     0.0497365  
H382     H      0.337190000000     0.805830000000     0.606150000000     0.0400658  
H383     H      0.371640000000     0.867830000000     0.663590000000     0.0396543  
H384     H      0.339000000000     0.851590000000     0.701900000000     0.0496119  
H385     H      0.463730000000     0.798920000000     0.594580000000     0.0484756  
H386     H      0.442150000000     0.814010000000     0.566350000000     0.0405954  
H387     H      0.468890000000     0.870800000000     0.633810000000     0.0396991  
H388     H      0.490320000000     0.855780000000     0.661910000000     0.0488102  
H389     H      0.521900000000     0.846760000000     0.656960000000     0.0484909  
H390     H      0.536570000000     0.830380000000     0.696810000000     0.0413707  
H391     H      0.473230000000     0.765340000000     0.689720000000     0.0400997  
H392     H      0.458610000000     0.781670000000     0.650120000000     0.0486273  
H393     H      0.660170000000     0.193070000000     0.274650000000     0.0484465  
H394     H      0.695760000000     0.213800000000     0.243380000000     0.0399698  
H395     H      0.716100000000     0.165870000000     0.275900000000     0.0400404  
H396     H      0.680810000000     0.145440000000     0.307590000000     0.0487232  
H397     H      0.638710000000     0.122110000000     0.307430000000     0.0483058  
H398     H      0.608760000000     0.105680000000     0.349300000000     0.0412877  
H399     H      0.622650000000     0.173600000000     0.374270000000     0.0405969  
H400     H      0.652630000000     0.189970000000     0.333040000000     0.0485743  
H401     H      0.508890000000     0.174130000000     0.407600000000     0.0483605  
H402     H      0.531230000000     0.160150000000     0.436250000000     0.0414809  
H403     H      0.506040000000     0.103110000000     0.369400000000     0.0407947  
H404     H      0.484050000000     0.117170000000     0.340600000000     0.0485784  
H405     H      0.512760000000     0.191510000000     0.353790000000     0.0484064  
H406     H      0.496880000000     0.207250000000     0.315330000000     0.0405482  
H407     H      0.436260000000     0.140370000000     0.304400000000     0.0416397  
H408     H      0.452050000000     0.124600000000     0.343400000000     0.048458   
H409     H      0.674400000000     0.199170000000     0.590800000000     0.0486657  
H410     H      0.702420000000     0.212290000000     0.635370000000     0.0412892  
H411     H      0.679100000000     0.141870000000     0.660810000000     0.0408523  
H412     H      0.651150000000     0.128860000000     0.616730000000     0.04838    
H413     H      0.652680000000     0.129350000000     0.556730000000     0.0485913  
H414     H      0.625200000000     0.114940000000     0.512070000000     0.0407102  
H415     H      0.603960000000     0.163730000000     0.535970000000     0.0408342  
H416     H      0.631550000000     0.178130000000     0.581150000000     0.0486959  
H417     H      0.520290000000     0.993080000000     0.470890000000     0.048118   
H418     H      0.544190000000     0.032060000000     0.450630000000     0.0412328  
H419     H      0.500650000000     0.052410000000     0.499740000000     0.0399229  
H420     H      0.476090000000     0.013250000000     0.518840000000     0.0483214  
H421     H      0.474410000000     0.985800000000     0.555770000000     0.0481995  
H422     H      0.449320000000     0.946650000000     0.574710000000     0.0413417  
H423     H      0.459940000000     0.920670000000     0.484290000000     0.0402063  
H424     H      0.484160000000     0.959700000000     0.464620000000     0.0481475  
H425     H      0.982890000000     0.852020000000     0.506270000000     0.0491509  
H426     H      0.013540000000     0.866210000000     0.465990000000     0.0402239  
H427     H      0.018940000000     0.805710000000     0.479220000000     0.0408078  
H428     H      0.988110000000     0.791460000000     0.519900000000     0.0488717  
H429     H      0.945910000000     0.777380000000     0.518010000000     0.0483113  
H430     H      0.910750000000     0.763830000000     0.549710000000     0.0401945  
H431     H      0.940040000000     0.829890000000     0.596830000000     0.0412826  
H432     H      0.975320000000     0.843390000000     0.565260000000     0.0481809  
H433     H      0.139120000000     0.981380000000     0.436180000000     0.0495816  
H434     H      0.118750000000     0.946020000000     0.403720000000     0.0406863  
H435     H      0.109130000000     0.905980000000     0.490540000000     0.0411768  
H436     H      0.128890000000     0.941070000000     0.522640000000     0.0496098  
H437     H      0.114000000000     0.972390000000     0.530560000000     0.0497001  
H438     H      0.130070000000     0.005290000000     0.567210000000     0.040218   
H439     H      0.195120000000     0.034550000000     0.516590000000     0.040116   
H440     H      0.178610000000     0.001540000000     0.479200000000     0.0496464  
H441     H      0.302960000000     0.837210000000     0.139660000000     0.0495304  
H442     H      0.270500000000     0.820960000000     0.178280000000     0.0394422  
H443     H      0.305150000000     0.794190000000     0.236240000000     0.0398792  
H444     H      0.337400000000     0.810730000000     0.198360000000     0.0497354  
H445     H      0.366370000000     0.855930000000     0.182760000000     0.0494825  
H446     H      0.400760000000     0.869640000000     0.149410000000     0.0415903  
H447     H      0.358790000000     0.830900000000     0.067470000000     0.0407797  
H448     H      0.324110000000     0.817460000000     0.101170000000     0.0494284  
H449     H      0.150840000000     0.691940000000     0.175920000000     0.0489667  
H450     H      0.172610000000     0.727780000000     0.205920000000     0.0396002  
H451     H      0.199920000000     0.696040000000     0.268820000000     0.040574   
H452     H      0.178090000000     0.660060000000     0.238610000000     0.0487498  
H453     H      0.182510000000     0.649720000000     0.180840000000     0.0487766  
H454     H      0.166280000000     0.618310000000     0.141640000000     0.0402048  
H455     H      0.102510000000     0.618960000000     0.141730000000     0.0413568  
H456     H      0.118860000000     0.650570000000     0.181040000000     0.0487626  
H457     H      0.301160000000     0.838210000000     0.417630000000     0.0480177  
H458     H      0.272500000000     0.825130000000     0.374600000000     0.0387816  
H459     H      0.285460000000     0.770420000000     0.351430000000     0.040119   
H460     H      0.315360000000     0.784300000000     0.393040000000     0.0480434  
H461     H      0.324620000000     0.788450000000     0.447910000000     0.048011   
H462     H      0.354690000000     0.803560000000     0.489330000000     0.0399749  
H463     H      0.369060000000     0.872160000000     0.468900000000     0.0388178  
H464     H      0.340230000000     0.857490000000     0.426050000000     0.0480683  
H465     H      0.167810000000     0.835220000000     0.288250000000     0.0482608  
H466     H      0.193760000000     0.822390000000     0.269350000000     0.0414731  
H467     H      0.179900000000     0.781680000000     0.356460000000     0.0402623  
H468     H      0.154760000000     0.795220000000     0.376160000000     0.0482201  
H469     H      0.118640000000     0.791980000000     0.367650000000     0.0483035  
H470     H      0.093320000000     0.805370000000     0.387250000000     0.041502   
H471     H      0.138390000000     0.872010000000     0.345390000000     0.0399042  
H472     H      0.164300000000     0.859050000000     0.326990000000     0.0482808  
H473     H      0.657520000000     0.523820000000     0.343900000000     0.0484222  
H474     H      0.689250000000     0.539480000000     0.304800000000     0.0415809  
H475     H      0.694030000000     0.478390000000     0.314190000000     0.040449   
H476     H      0.662230000000     0.462640000000     0.352800000000     0.0483857  
H477     H      0.617480000000     0.492280000000     0.341070000000     0.0486089  
H478     H      0.581220000000     0.470770000000     0.370230000000     0.0405956  
H479     H      0.612520000000     0.444620000000     0.436070000000     0.0414262  
H480     H      0.649050000000     0.466470000000     0.407030000000     0.0483946  
H481     H      0.790260000000     0.462720000000     0.265210000000     0.0482723  
H482     H      0.768680000000     0.477630000000     0.236890000000     0.0411166  
H483     H      0.806200000000     0.541240000000     0.290110000000     0.0401127  
H484     H      0.827460000000     0.526250000000     0.318750000000     0.0484287  
H485     H      0.855250000000     0.512970000000     0.315270000000     0.0481698  
H486     H      0.870960000000     0.497530000000     0.355030000000     0.0410217  
H487     H      0.804960000000     0.435140000000     0.360610000000     0.0405074  
H488     H      0.789250000000     0.450570000000     0.321480000000     0.04847    
H489     H      0.969420000000     0.787380000000     0.979130000000     0.0480883  
H490     H      0.938830000000     0.771650000000     0.020070000000     0.0411099  
H491     H      0.947180000000     0.838810000000     0.033660000000     0.0404035  
H492     H      0.977850000000     0.854550000000     0.993380000000     0.048326   
H493     H      0.988370000000     0.855480000000     0.936340000000     0.045718   
H494     H      0.025100000000     0.876290000000     0.907550000000     0.0402291  
H495     H      0.047380000000     0.833250000000     0.953190000000     0.0409925  
H496     H      0.011020000000     0.812800000000     0.982290000000     0.048452   
H497     H      0.798050000000     0.774990000000     0.037620000000     0.0478932  
H498     H      0.822560000000     0.763850000000     0.066210000000     0.038621   
H499     H      0.872170000000     0.835010000000     0.084440000000     0.0401035  
H500     H      0.848550000000     0.846400000000     0.054170000000     0.0481103  
H501     H      0.815920000000     0.849290000000     0.048340000000     0.0478573  
H502     H      0.799700000000     0.863580000000     0.007960000000     0.0388136  
H503     H      0.779980000000     0.803840000000     0.948400000000     0.0415846  
H504     H      0.797330000000     0.790140000000     0.987470000000     0.0481453  
H505     H      0.991040000000     0.804630000000     0.212910000000     0.0482134  
H506     H      0.962700000000     0.790290000000     0.169370000000     0.0404537  
H507     H      0.932480000000     0.828440000000     0.208340000000     0.0405336  
H508     H      0.960920000000     0.842700000000     0.252450000000     0.0484683  
H509     H      0.003560000000     0.867670000000     0.263020000000     0.0487647  
H510     H      0.030770000000     0.879250000000     0.308580000000     0.0408878  
H511     H      0.016810000000     0.809660000000     0.316900000000     0.0407497  
H512     H      0.989720000000     0.798160000000     0.271970000000     0.0485054  
H513     H      0.811020000000     0.653220000000     0.227590000000     0.0482157  
H514     H      0.785610000000     0.613870000000     0.245640000000     0.0410468  
H515     H      0.780810000000     0.590010000000     0.146770000000     0.0397882  
H516     H      0.805460000000     0.629330000000     0.128430000000     0.0481394  
H517     H      0.844200000000     0.659830000000     0.129960000000     0.0480771  
H518     H      0.868940000000     0.698990000000     0.110870000000     0.0417207  
H519     H      0.837090000000     0.722920000000     0.179410000000     0.0402908  
H520     H      0.811710000000     0.683690000000     0.197730000000     0.0480566  
H521     H      0.642300000000     0.450890000000     0.818980000000     0.0484331  
H522     H      0.611200000000     0.436200000000     0.858660000000     0.0405753  
H523     H      0.618210000000     0.503190000000     0.865770000000     0.0414996  
H524     H      0.649240000000     0.517890000000     0.825550000000     0.0484376  
H525     H      0.654980000000     0.466670000000     0.764040000000     0.0484018  
H526     H      0.690930000000     0.480110000000     0.733990000000     0.0412747  
H527     H      0.724520000000     0.539100000000     0.797340000000     0.0408757  
H528     H      0.688880000000     0.525600000000     0.827500000000     0.0485474  
H529     H      0.516550000000     0.319260000000     0.842680000000     0.0486916  
H530     H      0.500260000000     0.288990000000     0.801930000000     0.0403578  
H531     H      0.433560000000     0.282260000000     0.815660000000     0.0412042  
H532     H      0.449920000000     0.312620000000     0.856870000000     0.0483835  
H533     H      0.477260000000     0.354520000000     0.854610000000     0.048559   
H534     H      0.498860000000     0.390110000000     0.885160000000     0.0401566  
H535     H      0.538120000000     0.363520000000     0.931450000000     0.0412841  
H536     H      0.516280000000     0.327720000000     0.901080000000     0.048504   
H537     H      0.617070000000     0.446740000000     0.098890000000     0.0487996  
H538     H      0.589740000000     0.435270000000     0.053610000000     0.0406857  
H539     H      0.642330000000     0.488640000000     0.993900000000     0.0397757  
H540     H      0.669610000000     0.499890000000     0.038940000000     0.0487507  
H541     H      0.689920000000     0.483460000000     0.073310000000     0.0487866  
H542     H      0.717260000000     0.498950000000     0.118660000000     0.0406956  
H543     H      0.664800000000     0.498920000000     0.179170000000     0.0398536  
H544     H      0.637510000000     0.483240000000     0.134070000000     0.0487665  
H545     H      0.317460000000     0.511300000000     0.237630000000     0.0484321  
H546     H      0.281730000000     0.497380000000     0.268390000000     0.0410959  
H547     H      0.249260000000     0.436570000000     0.208360000000     0.0402316  
H548     H      0.284810000000     0.450510000000     0.177600000000     0.0486858  
H549     H      0.325760000000     0.460420000000     0.180180000000     0.0485201  
H550     H      0.356630000000     0.475360000000     0.139570000000     0.0408296  
H551     H      0.358730000000     0.540280000000     0.140550000000     0.0401507  
H552     H      0.327980000000     0.525400000000     0.180800000000     0.0486569  
H553     H      0.502530000000     0.641810000000     0.183590000000     0.0481633  
H554     H      0.519320000000     0.672960000000     0.222800000000     0.041333   
H555     H      0.497420000000     0.711480000000     0.164330000000     0.0384768  
H556     H      0.481870000000     0.680990000000     0.123710000000     0.0478796  
H557     H      0.450180000000     0.644900000000     0.117190000000     0.0480599  
H558     H      0.427560000000     0.609870000000     0.086140000000     0.0405311  
H559     H      0.478470000000     0.590430000000     0.104210000000     0.0385239  
H560     H      0.502070000000     0.626220000000     0.133500000000     0.0478574  
H561     H      0.316840000000     0.462500000000     0.945670000000     0.0485798  
H562     H      0.344840000000     0.475570000000     0.989710000000     0.0401743  
H563     H      0.367470000000     0.545950000000     0.964960000000     0.0406498  
H564     H      0.339290000000     0.532750000000     0.920540000000     0.0489118  
H565     H      0.295800000000     0.510840000000     0.912420000000     0.0488538  
H566     H      0.267510000000     0.496040000000     0.868120000000     0.0407623  
H567     H      0.290330000000     0.448960000000     0.841160000000     0.0404005  
H568     H      0.318440000000     0.463710000000     0.885080000000     0.0485383  
H569     H      0.496440000000     0.496210000000     0.944070000000     0.0481961  
H570     H      0.522590000000     0.483220000000     0.926670000000     0.0411447  
H571     H      0.526450000000     0.463750000000     0.025600000000     0.0398083  
H572     H      0.501080000000     0.477530000000     0.043330000000     0.0481568  
H573     H      0.462100000000     0.467870000000     0.040640000000     0.0482242  
H574     H      0.435980000000     0.480640000000     0.058770000000     0.0417291  
H575     H      0.467310000000     0.537260000000     0.991150000000     0.0401105  
H576     H      0.494090000000     0.525070000000     0.973830000000     0.048047   
In1      In     0.405260000000     0.532170000000     0.057760000000     2.4163     
In2      In     0.567020000000     0.445280000000     0.944260000000     2.40527    
In3      In     0.896730000000     0.781020000000     0.110570000000     2.41734    
In4      In     0.740160000000     0.531010000000     0.228490000000     2.40095    
In5      In     0.233030000000     0.778770000000     0.279810000000     2.42329    
In6      In     0.068990000000     0.861780000000     0.397200000000     2.42864    
In7      In     0.566670000000     0.112580000000     0.442190000000     2.42485    
In8      In     0.408760000000     0.863480000000     0.561530000000     2.42041    
In9      In     0.900540000000     0.110640000000     0.610610000000     2.41258    
In10     In     0.740210000000     0.198510000000     0.727900000000     2.4227     
In11     In     0.229270000000     0.444730000000     0.774890000000     2.4207     
In12     In     0.074100000000     0.195030000000     0.894320000000     2.40508    
In13     In     0.858020000000     0.777820000000     0.612650000000     2.40936    
In14     In     0.774440000000     0.528990000000     0.723420000000     2.42424    
In15     In     0.195140000000     0.107770000000     0.109130000000     2.4198     
In16     In     0.444650000000     0.200130000000     0.229080000000     2.40462    
In17     In     0.861360000000     0.441890000000     0.439320000000     2.41781    
In18     In     0.109670000000     0.531080000000     0.562220000000     2.38777    
In19     In     0.107290000000     0.195960000000     0.390900000000     2.41419    
In20     In     0.198840000000     0.446930000000     0.281750000000     2.41921    
In21     In     0.443250000000     0.866900000000     0.058240000000     2.4325     
In22     In     0.529290000000     0.115300000000     0.942290000000     2.40714    
In23     In     0.774250000000     0.864490000000     0.896440000000     2.39007    
In24     In     0.524600000000     0.772380000000     0.777480000000     2.41323    
In25     In     0.108990000000     0.567490000000     0.064400000000     2.42724    
In26     In     0.860170000000     0.407610000000     0.942190000000     2.40888    
In27     In     0.190260000000     0.074040000000     0.615160000000     2.42313    
In28     In     0.440850000000     0.236730000000     0.728390000000     2.42173    
In29     In     0.196630000000     0.740820000000     0.779260000000     2.42947    
In30     In     0.106320000000     0.899250000000     0.895080000000     2.39329    
In31     In     0.529090000000     0.410480000000     0.443070000000     2.42036    
In32     In     0.436670000000     0.567690000000     0.556200000000     2.38915    
In33     In     0.864430000000     0.074980000000     0.110120000000     2.42426    
In34     In     0.775450000000     0.234870000000     0.223350000000     2.38887    
In35     In     0.773510000000     0.900680000000     0.394420000000     2.42737    
In36     In     0.524470000000     0.739120000000     0.274990000000     2.39418    
O1       O      0.436980000000     0.557250000000     0.086430000000    -0.496568   
O2       O      0.419380000000     0.570790000000     0.059880000000    -0.478722   
O3       O      0.420850000000     0.509220000000     0.061950000000    -0.481471   
O4       O      0.381760000000     0.535350000000     0.094350000000    -0.499816   
O5       O      0.390330000000     0.540080000000     0.012570000000    -0.480459   
O6       O      0.386350000000     0.506670000000     0.099260000000    -0.476032   
O7       O      0.432140000000     0.533300000000     0.022990000000    -0.496869   
O8       O      0.375590000000     0.505420000000     0.027580000000    -0.50428    
O9       O      0.601090000000     0.468410000000     0.969650000000    -0.495996   
O10      O      0.577990000000     0.436840000000     0.992720000000    -0.476748   
O11      O      0.549720000000     0.466520000000     0.935730000000    -0.47991    
O12      O      0.588480000000     0.472350000000     0.905870000000    -0.475105   
O13      O      0.552160000000     0.406440000000     0.943600000000    -0.479863   
O14      O      0.587940000000     0.440640000000     0.904810000000    -0.496063   
O15      O      0.546110000000     0.451410000000     0.982330000000    -0.49743    
O16      O      0.534840000000     0.419960000000     0.916550000000    -0.498172   
O17      O      0.881930000000     0.804900000000     0.109300000000    -0.480517   
O18      O      0.864330000000     0.773430000000     0.083190000000    -0.498467   
O19      O      0.882610000000     0.742500000000     0.107180000000    -0.480197   
O20      O      0.920690000000     0.808550000000     0.075150000000    -0.499521   
O21      O      0.911770000000     0.803090000000     0.156580000000    -0.480256   
O22      O      0.913580000000     0.774610000000     0.066360000000    -0.475901   
O23      O      0.870850000000     0.754810000000     0.146090000000    -0.496639   
O24      O      0.927940000000     0.785460000000     0.137870000000    -0.504355   
O25      O      0.706070000000     0.520010000000     0.203300000000    -0.494532   
O26      O      0.729060000000     0.511760000000     0.179790000000    -0.475003   
O27      O      0.758520000000     0.569760000000     0.237140000000    -0.479995   
O28      O      0.718980000000     0.537430000000     0.266150000000    -0.47508    
O29      O      0.754200000000     0.506440000000     0.228500000000    -0.480789   
O30      O      0.718510000000     0.505770000000     0.268100000000    -0.494816   
O31      O      0.761090000000     0.558060000000     0.190210000000    -0.496863   
O32      O      0.771750000000     0.536830000000     0.256750000000    -0.49777    
O33      O      0.256200000000     0.803950000000     0.318370000000    -0.496717   
O34      O      0.250390000000     0.769920000000     0.320480000000    -0.475799   
O35      O      0.217910000000     0.802180000000     0.276080000000    -0.481958   
O36      O      0.251550000000     0.802730000000     0.236420000000    -0.476235   
O37      O      0.214450000000     0.739510000000     0.280710000000    -0.482816   
O38      O      0.264060000000     0.781590000000     0.254220000000    -0.50446    
O39      O      0.205260000000     0.776750000000     0.313380000000    -0.498469   
O40      O      0.206840000000     0.755630000000     0.242250000000    -0.504759   
O41      O      0.091990000000     0.882460000000     0.438930000000    -0.502887   
O42      O      0.090050000000     0.901060000000     0.398360000000    -0.479077   
O43      O      0.081780000000     0.836310000000     0.398280000000    -0.482249   
O44      O      0.048230000000     0.836150000000     0.437530000000    -0.476079   
O45      O      0.054240000000     0.872140000000     0.354250000000    -0.480247   
O46      O      0.040920000000     0.862570000000     0.426420000000    -0.501667   
O47      O      0.099850000000     0.866040000000     0.368640000000    -0.50098    
O48      O      0.043490000000     0.836920000000     0.360570000000    -0.505583   
O49      O      0.538510000000     0.107860000000     0.407330000000    -0.500843   
O50      O      0.548700000000     0.133600000000     0.443820000000    -0.480898   
O51      O      0.554320000000     0.074330000000     0.440460000000    -0.482132   
O52      O      0.584230000000     0.107670000000     0.397590000000    -0.477869   
O53      O      0.581710000000     0.135760000000     0.487150000000    -0.479647   
O54      O      0.593640000000     0.141610000000     0.411460000000    -0.502181   
O55      O      0.537750000000     0.085620000000     0.473510000000    -0.499334   
O56      O      0.595060000000     0.114380000000     0.473830000000    -0.504046   
O57      O      0.385460000000     0.866220000000     0.524150000000    -0.496688   
O58      O      0.390450000000     0.837590000000     0.520550000000    -0.475523   
O59      O      0.424520000000     0.902140000000     0.566950000000    -0.481442   
O60      O      0.390680000000     0.868570000000     0.605700000000    -0.475573   
O61      O      0.427160000000     0.842820000000     0.558140000000    -0.482555   
O62      O      0.377960000000     0.834890000000     0.587420000000    -0.503554   
O63      O      0.435980000000     0.889790000000     0.527670000000    -0.498098   
O64      O      0.435140000000     0.865700000000     0.597950000000    -0.504826   
O65      O      0.933840000000     0.134260000000     0.637480000000    -0.500598   
O66      O      0.911710000000     0.101720000000     0.658630000000    -0.480972   
O67      O      0.888600000000     0.136890000000     0.609470000000    -0.481492   
O68      O      0.919110000000     0.135780000000     0.568810000000    -0.474205   
O69      O      0.884730000000     0.071780000000     0.608530000000    -0.481147   
O70      O      0.923910000000     0.107160000000     0.574180000000    -0.495423   
O71      O      0.873100000000     0.109770000000     0.643870000000    -0.498955   
O72      O      0.870280000000     0.086910000000     0.578460000000    -0.498634   
O73      O      0.769350000000     0.222840000000     0.760920000000    -0.501352   
O74      O      0.757660000000     0.237630000000     0.725590000000    -0.479836   
O75      O      0.757840000000     0.177540000000     0.735000000000    -0.482771   
O76      O      0.719480000000     0.172830000000     0.768300000000    -0.478158   
O77      O      0.724620000000     0.206480000000     0.683690000000    -0.478562   
O78      O      0.716080000000     0.202210000000     0.762580000000    -0.501736   
O79      O      0.764740000000     0.196880000000     0.691320000000    -0.499607   
O80      O      0.710890000000     0.171620000000     0.697460000000    -0.501358   
O81      O      0.197360000000     0.437150000000     0.746210000000    -0.498653   
O82      O      0.213560000000     0.467810000000     0.774310000000    -0.480512   
O83      O      0.215480000000     0.406280000000     0.771700000000    -0.480726   
O84      O      0.246540000000     0.438940000000     0.730580000000    -0.477247   
O85      O      0.244510000000     0.467550000000     0.820130000000    -0.480113   
O86      O      0.253910000000     0.472800000000     0.740690000000    -0.501524   
O87      O      0.202870000000     0.418440000000     0.809740000000    -0.497346   
O88      O      0.259220000000     0.447870000000     0.804230000000    -0.504096   
O89      O      0.039680000000     0.183620000000     0.869900000000    -0.495398   
O90      O      0.062770000000     0.175880000000     0.845580000000    -0.476283   
O91      O      0.091980000000     0.233790000000     0.902410000000    -0.479891   
O92      O      0.053460000000     0.201720000000     0.932550000000    -0.474464   
O93      O      0.087990000000     0.170360000000     0.894880000000    -0.481665   
O94      O      0.052830000000     0.169960000000     0.934250000000    -0.494444   
O95      O      0.095000000000     0.221880000000     0.855840000000    -0.496959   
O96      O      0.106060000000     0.201280000000     0.921890000000    -0.498664   
O97      O      0.834920000000     0.787540000000     0.640190000000    -0.497803   
O98      O      0.868280000000     0.799220000000     0.659520000000    -0.477929   
O99      O      0.835960000000     0.739090000000     0.605340000000    -0.481653   
O100     O      0.830330000000     0.771990000000     0.575300000000    -0.475457   
O101     O      0.897080000000     0.801330000000     0.610590000000    -0.479794   
O102     O      0.862260000000     0.803370000000     0.573470000000    -0.496896   
O103     O      0.853380000000     0.751140000000     0.650510000000    -0.498043   
O104     O      0.882080000000     0.770610000000     0.582770000000    -0.497778   
O105     O      0.751540000000     0.533590000000     0.759250000000    -0.501196   
O106     O      0.735110000000     0.507260000000     0.723660000000    -0.479409   
O107     O      0.798430000000     0.567700000000     0.726230000000    -0.482159   
O108     O      0.799760000000     0.535120000000     0.764800000000    -0.476957   
O109     O      0.765820000000     0.504810000000     0.679550000000    -0.480435   
O110     O      0.772330000000     0.501120000000     0.756480000000    -0.501533   
O111     O      0.771610000000     0.554750000000     0.690960000000    -0.499521   
O112     O      0.800940000000     0.527990000000     0.690550000000    -0.504566   
O113     O      0.202670000000     0.084800000000     0.077540000000    -0.499426   
O114     O      0.172560000000     0.068630000000     0.107000000000    -0.479815   
O115     O      0.233820000000     0.132430000000     0.107060000000    -0.48055    
O116     O      0.201570000000     0.132360000000     0.066700000000    -0.476646   
O117     O      0.171370000000     0.099350000000     0.153670000000    -0.479331   
O118     O      0.167510000000     0.104860000000     0.074590000000    -0.501114   
O119     O      0.220890000000     0.106740000000     0.143940000000    -0.497507   
O120     O      0.192420000000     0.134190000000     0.139710000000    -0.504173   
O121     O      0.456200000000     0.177830000000     0.203450000000    -0.495536   
O122     O      0.464130000000     0.209150000000     0.180490000000    -0.47596    
O123     O      0.405730000000     0.178610000000     0.236970000000    -0.479525   
O124     O      0.438170000000     0.172240000000     0.266230000000    -0.475004   
O125     O      0.469180000000     0.238950000000     0.230740000000    -0.481162   
O126     O      0.469720000000     0.203960000000     0.268910000000    -0.49577    
O127     O      0.417780000000     0.194210000000     0.190730000000    -0.497076   
O128     O      0.438010000000     0.225120000000     0.257520000000    -0.498247   
O129     O      0.868530000000     0.417870000000     0.409550000000    -0.498451   
O130     O      0.837420000000     0.403000000000     0.436890000000    -0.479362   
O131     O      0.900270000000     0.465390000000     0.436560000000    -0.480745   
O132     O      0.868220000000     0.467030000000     0.397370000000    -0.476036   
O133     O      0.838020000000     0.433800000000     0.484200000000    -0.479258   
O134     O      0.834300000000     0.438900000000     0.403610000000    -0.500563   
O135     O      0.886660000000     0.440900000000     0.475000000000    -0.497887   
O136     O      0.858290000000     0.468480000000     0.469030000000    -0.503834   
O137     O      0.132080000000     0.517350000000     0.542810000000    -0.486006   
O138     O      0.125650000000     0.538190000000     0.511010000000    -0.47292    
O139     O      0.070620000000     0.509970000000     0.569810000000    -0.484015   
O140     O      0.104060000000     0.498960000000     0.588740000000    -0.473658   
O141     O      0.137560000000     0.568860000000     0.568020000000    -0.488224   
O142     O      0.122490000000     0.530910000000     0.613480000000    -0.489017   
O143     O      0.082930000000     0.523220000000     0.522630000000    -0.490202   
O144     O      0.103930000000     0.558580000000     0.584720000000    -0.496534   
O145     O      0.082860000000     0.201370000000     0.422560000000    -0.499171   
O146     O      0.068020000000     0.173200000000     0.389680000000    -0.478295   
O147     O      0.128780000000     0.234630000000     0.398250000000    -0.481714   
O148     O      0.133260000000     0.201730000000     0.431130000000    -0.476546   
O149     O      0.099220000000     0.172410000000     0.346420000000    -0.47842    
O150     O      0.103330000000     0.168800000000     0.427170000000    -0.499101   
O151     O      0.109340000000     0.222460000000     0.354530000000    -0.497429   
O152     O      0.134080000000     0.193150000000     0.361010000000    -0.50116    
O153     O      0.173750000000     0.451600000000     0.312990000000    -0.500017   
O154     O      0.208540000000     0.468150000000     0.328860000000    -0.477807   
O155     O      0.171820000000     0.408750000000     0.280170000000    -0.483179   
O156     O      0.176500000000     0.442310000000     0.236940000000    -0.475095   
O157     O      0.238120000000     0.469130000000     0.280500000000    -0.481254   
O158     O      0.199220000000     0.476090000000     0.254200000000    -0.500609   
O159     O      0.200160000000     0.419570000000     0.312380000000    -0.500992   
O160     O      0.221760000000     0.442320000000     0.245690000000    -0.500815   
O161     O      0.423300000000     0.871080000000     0.099090000000    -0.504968   
O162     O      0.403840000000     0.848740000000     0.060240000000    -0.47892    
O163     O      0.468660000000     0.905440000000     0.059460000000    -0.482886   
O164     O      0.468520000000     0.871230000000     0.098840000000    -0.476027   
O165     O      0.432770000000     0.841610000000     0.015420000000    -0.480483   
O166     O      0.441100000000     0.837640000000     0.087760000000    -0.502377   
O167     O      0.439940000000     0.893000000000     0.027440000000    -0.501769   
O168     O      0.468260000000     0.865800000000     0.022620000000    -0.505975   
O169     O      0.506140000000     0.125350000000     0.969020000000    -0.496622   
O170     O      0.538760000000     0.135700000000     0.990070000000    -0.476461   
O171     O      0.507220000000     0.076440000000     0.935500000000    -0.480506   
O172     O      0.501580000000     0.109050000000     0.904760000000    -0.474961   
O173     O      0.568350000000     0.139060000000     0.940580000000    -0.480474   
O174     O      0.533010000000     0.140970000000     0.903620000000    -0.495892   
O175     O      0.525120000000     0.088890000000     0.980230000000    -0.498226   
O176     O      0.553600000000     0.108770000000     0.911850000000    -0.498832   
O177     O      0.793820000000     0.848310000000     0.874800000000    -0.487295   
O178     O      0.791110000000     0.872820000000     0.845820000000    -0.473177   
O179     O      0.735360000000     0.844270000000     0.905880000000    -0.485      
O180     O      0.769460000000     0.833330000000     0.924930000000    -0.473818   
O181     O      0.802020000000     0.902370000000     0.900380000000    -0.485624   
O182     O      0.789740000000     0.866230000000     0.946430000000    -0.489706   
O183     O      0.746740000000     0.855180000000     0.857590000000    -0.494383   
O184     O      0.768720000000     0.892240000000     0.918530000000    -0.495235   
O185     O      0.531090000000     0.746570000000     0.751270000000    -0.497345   
O186     O      0.498610000000     0.733960000000     0.774360000000    -0.479739   
O187     O      0.563510000000     0.794780000000     0.773610000000    -0.480976   
O188     O      0.533170000000     0.798170000000     0.736010000000    -0.473658   
O189     O      0.501990000000     0.765530000000     0.823010000000    -0.479795   
O190     O      0.499350000000     0.769340000000     0.738420000000    -0.496942   
O191     O      0.549880000000     0.772370000000     0.814380000000    -0.495663   
O192     O      0.520230000000     0.799330000000     0.803990000000    -0.504565   
O193     O      0.105820000000     0.542850000000     0.103950000000    -0.503298   
O194     O      0.128480000000     0.547810000000     0.064580000000    -0.479899   
O195     O      0.070230000000     0.552850000000     0.067090000000    -0.482989   
O196     O      0.103370000000     0.587810000000     0.104260000000    -0.475529   
O197     O      0.134040000000     0.583340000000     0.021200000000    -0.479607   
O198     O      0.137230000000     0.593730000000     0.096920000000    -0.499479   
O199     O      0.082790000000     0.538520000000     0.032290000000    -0.500767   
O200     O      0.110730000000     0.595020000000     0.031280000000    -0.506136   
O201     O      0.850240000000     0.374270000000     0.968450000000    -0.497368   
O202     O      0.838090000000     0.395200000000     0.988430000000    -0.477163   
O203     O      0.899170000000     0.424950000000     0.936370000000    -0.481648   
O204     O      0.867150000000     0.387140000000     0.904060000000    -0.475678   
O205     O      0.836340000000     0.422480000000     0.940500000000    -0.480848   
O206     O      0.835050000000     0.385970000000     0.902490000000    -0.49673    
O207     O      0.886180000000     0.429320000000     0.981280000000    -0.498066   
O208     O      0.867160000000     0.439010000000     0.912760000000    -0.498214   
O209     O      0.188620000000     0.046470000000     0.648290000000    -0.500523   
O210     O      0.167120000000     0.060090000000     0.660210000000    -0.477097   
O211     O      0.229030000000     0.089540000000     0.609660000000    -0.482112   
O212     O      0.194950000000     0.054740000000     0.572530000000    -0.476043   
O213     O      0.168580000000     0.091470000000     0.614470000000    -0.481769   
O214     O      0.161000000000     0.044890000000     0.587560000000    -0.502506   
O215     O      0.216850000000     0.100220000000     0.649980000000    -0.499503   
O216     O      0.194990000000     0.101510000000     0.579120000000    -0.504314   
O217     O      0.436310000000     0.208820000000     0.763440000000    -0.499802   
O218     O      0.462410000000     0.219290000000     0.727310000000    -0.479826   
O219     O      0.402260000000     0.223170000000     0.730880000000    -0.482072   
O220     O      0.435410000000     0.255040000000     0.771500000000    -0.477056   
O221     O      0.464340000000     0.252040000000     0.683650000000    -0.479821   
O222     O      0.469440000000     0.262740000000     0.760740000000    -0.501371   
O223     O      0.414170000000     0.207830000000     0.696700000000    -0.498837   
O224     O      0.442690000000     0.265120000000     0.696830000000    -0.503965   
O225     O      0.217740000000     0.766010000000     0.739890000000    -0.504326   
O226     O      0.236100000000     0.761360000000     0.778530000000    -0.479434   
O227     O      0.170710000000     0.753110000000     0.778820000000    -0.482875   
O228     O      0.172720000000     0.721540000000     0.736510000000    -0.475339   
O229     O      0.205840000000     0.725860000000     0.823240000000    -0.479548   
O230     O      0.198540000000     0.713650000000     0.749430000000    -0.501013   
O231     O      0.199710000000     0.770220000000     0.810190000000    -0.500393   
O232     O      0.170580000000     0.712940000000     0.811990000000    -0.50651    
O233     O      0.112520000000     0.909340000000     0.841480000000    -0.483582   
O234     O      0.105730000000     0.930110000000     0.872900000000    -0.481453   
O235     O      0.131360000000     0.885820000000     0.900560000000    -0.484484   
O236     O      0.138610000000     0.930380000000     0.915530000000    -0.486324   
O237     O      0.067910000000     0.887870000000     0.896320000000    -0.488989   
O238     O      0.110630000000     0.911580000000     0.947780000000    -0.491476   
O239     O      0.106990000000     0.872690000000     0.862000000000    -0.48386    
O240     O      0.078920000000     0.868040000000     0.922290000000    -0.494889   
O241     O      0.552980000000     0.438350000000     0.408020000000    -0.500342   
O242     O      0.568370000000     0.428070000000     0.444480000000    -0.479634   
O243     O      0.505250000000     0.425140000000     0.438510000000    -0.48225    
O244     O      0.504540000000     0.391020000000     0.400920000000    -0.476466   
O245     O      0.536970000000     0.395280000000     0.487940000000    -0.479256   
O246     O      0.531850000000     0.384760000000     0.410760000000    -0.501003   
O247     O      0.530610000000     0.438420000000     0.475840000000    -0.499412   
O248     O      0.502050000000     0.382130000000     0.474630000000    -0.503162   
O249     O      0.426650000000     0.577170000000     0.507600000000    -0.47378    
O250     O      0.455390000000     0.603160000000     0.533190000000    -0.489594   
O251     O      0.457440000000     0.549830000000     0.564640000000    -0.485581   
O252     O      0.467350000000     0.593580000000     0.586550000000    -0.472306   
O253     O      0.398410000000     0.555970000000     0.559970000000    -0.481201   
O254     O      0.433810000000     0.582130000000     0.605060000000    -0.488846   
O255     O      0.444510000000     0.548510000000     0.517150000000    -0.495809   
O256     O      0.409700000000     0.534300000000     0.579740000000    -0.493751   
O257     O      0.888460000000     0.102990000000     0.075450000000    -0.501684   
O258     O      0.903680000000     0.092260000000     0.111580000000    -0.480236   
O259     O      0.840670000000     0.089770000000     0.106460000000    -0.482649   
O260     O      0.840600000000     0.056590000000     0.066840000000    -0.477217   
O261     O      0.871860000000     0.059370000000     0.154880000000    -0.479696   
O262     O      0.866580000000     0.048690000000     0.078330000000    -0.501411   
O263     O      0.866490000000     0.102990000000     0.143200000000    -0.499638   
O264     O      0.837040000000     0.046600000000     0.141200000000    -0.503589   
O265     O      0.766770000000     0.242770000000     0.172600000000    -0.473327   
O266     O      0.790800000000     0.270600000000     0.201590000000    -0.48717    
O267     O      0.796410000000     0.217200000000     0.232230000000    -0.486148   
O268     O      0.774770000000     0.248420000000     0.273940000000    -0.488558   
O269     O      0.747680000000     0.201540000000     0.246090000000    -0.495447   
O270     O      0.807170000000     0.262350000000     0.250230000000    -0.47248    
O271     O      0.783540000000     0.215720000000     0.184670000000    -0.493536   
O272     O      0.737670000000     0.224780000000     0.228730000000    -0.486457   
O273     O      0.768550000000     0.873010000000     0.430130000000    -0.501294   
O274     O      0.794760000000     0.882900000000     0.394280000000    -0.479997   
O275     O      0.734680000000     0.885510000000     0.397740000000    -0.482939   
O276     O      0.768180000000     0.920570000000     0.435420000000    -0.477768   
O277     O      0.797630000000     0.916170000000     0.350390000000    -0.480279   
O278     O      0.801820000000     0.926150000000     0.427560000000    -0.502207   
O279     O      0.747540000000     0.872590000000     0.361170000000    -0.500632   
O280     O      0.775230000000     0.928670000000     0.362150000000    -0.504687   
O281     O      0.507320000000     0.703830000000     0.298390000000    -0.491315   
O282     O      0.503860000000     0.729570000000     0.322850000000    -0.474123   
O283     O      0.563470000000     0.756890000000     0.268230000000    -0.485616   
O284     O      0.529800000000     0.713420000000     0.245690000000    -0.472335   
O285     O      0.498490000000     0.751180000000     0.269050000000    -0.482033   
O286     O      0.507330000000     0.723900000000     0.226260000000    -0.489752   
O287     O      0.550890000000     0.758870000000     0.314740000000    -0.496598   
O288     O      0.532120000000     0.772250000000     0.249970000000    -0.494918   


