data_structure

_audit_creation_method RASPA-1.0
_audit_creation_date 2023-5-22
_audit_author_name 'Poobodin Mano'

_cell_length_a    47.3547
_cell_length_b    37.918
_cell_length_c    44.3501
_cell_angle_alpha 90.0011
_cell_angle_beta  89.9994
_cell_angle_gamma 89.9996
_cell_volume      79634.8

_symmetry_cell_setting          triclinic
_symmetry_space_group_name_Hall 'P 1'
_symmetry_space_group_name_H-M  'P 1'
_symmetry_Int_Tables_number     1

_symmetry_equiv_pos_as_xyz 'x,y,z'

loop_
_atom_site_label
_atom_site_type_symbol
_atom_site_fract_x
_atom_site_fract_y
_atom_site_fract_z
_atom_site_charge
C1       C      0.365450000000     0.037620000000     0.190930000000     0.352586   
C2       C      0.423010000000     0.057300000000     0.106700000000     0.356685   
C3       C      0.384170000000     0.141020000000     0.160050000000     0.357647   
C4       C      0.451210000000     0.059220000000     0.197780000000     0.362199   
C5       C      0.112170000000     0.973910000000     0.327210000000     0.356686   
C6       C      0.177920000000     0.971450000000     0.407190000000     0.358064   
C7       C      0.140880000000     0.879110000000     0.364040000000     0.359889   
C8       C      0.200330000000     0.957190000000     0.314250000000     0.355276   
C9       C      0.313480000000     0.048640000000     0.695580000000     0.357162   
C10      C      0.255630000000     0.058610000000     0.605620000000     0.35697    
C11      C      0.226720000000     0.059680000000     0.693990000000     0.357505   
C12      C      0.294510000000     0.142960000000     0.653190000000     0.356045   
C13      C      0.064000000000     0.975510000000     0.821480000000     0.357899   
C14      C      0.005360000000     0.969070000000     0.910640000000     0.355423   
C15      C      0.976390000000     0.964590000000     0.822760000000     0.356812   
C16      C      0.044260000000     0.882440000000     0.864260000000     0.354719   
C17      C      0.367570000000     0.477060000000     0.694880000000     0.35724    
C18      C      0.425290000000     0.466830000000     0.604870000000     0.357097   
C19      C      0.454330000000     0.465930000000     0.693230000000     0.357509   
C20      C      0.386470000000     0.382610000000     0.652710000000     0.356617   
C21      C      0.117010000000     0.550100000000     0.820780000000     0.358056   
C22      C      0.175740000000     0.556310000000     0.909890000000     0.357031   
C23      C      0.204620000000     0.561020000000     0.822030000000     0.357046   
C24      C      0.136770000000     0.643050000000     0.863780000000     0.35507    
C25      C      0.068690000000     0.551260000000     0.326110000000     0.356608   
C26      C      0.002960000000     0.553620000000     0.406300000000     0.355086   
C27      C      0.040290000000     0.645810000000     0.363520000000     0.359542   
C28      C      0.980600000000     0.567880000000     0.313450000000     0.35621    
C29      C      0.315530000000     0.487800000000     0.189920000000     0.352588   
C30      C      0.258220000000     0.467750000000     0.105780000000     0.356802   
C31      C      0.296860000000     0.384090000000     0.159560000000     0.358026   
C32      C      0.229740000000     0.465830000000     0.196840000000     0.362446   
C33      C      0.176920000000     0.467790000000     0.261150000000    -0.064567   
C34      C      0.160870000000     0.497820000000     0.253830000000     0.0231746  
C35      C      0.166960000000     0.516020000000     0.226970000000    -0.0650461  
C36      C      0.189070000000     0.505210000000     0.208390000000     0.0228494  
C37      C      0.205520000000     0.475750000000     0.216020000000    -0.0992329  
C38      C      0.199040000000     0.456820000000     0.242370000000     0.0227196  
C39      C      0.138190000000     0.510890000000     0.274170000000     0.02257    
C40      C      0.119490000000     0.487490000000     0.288610000000    -0.0640016  
C41      C      0.097230000000     0.500420000000     0.306280000000     0.021493   
C42      C      0.093270000000     0.536920000000     0.309680000000    -0.0976761  
C43      C      0.112440000000     0.560180000000     0.296000000000     0.0216385  
C44      C      0.134680000000     0.547330000000     0.278600000000    -0.0643764  
C45      C      0.387860000000     0.525120000000     0.206940000000    -0.0639842  
C46      C      0.385490000000     0.532930000000     0.237810000000     0.0223876  
C47      C      0.359360000000     0.528070000000     0.252230000000    -0.0637903  
C48      C      0.336370000000     0.514320000000     0.236390000000     0.0205229  
C49      C      0.338960000000     0.505570000000     0.205740000000    -0.0948157  
C50      C      0.364730000000     0.511790000000     0.190980000000     0.0211628  
C51      C      0.410540000000     0.543910000000     0.255480000000     0.0228969  
C52      C      0.435960000000     0.525030000000     0.253000000000    -0.0644576  
C53      C      0.458900000000     0.533230000000     0.271520000000     0.0211681  
C54      C      0.456970000000     0.560730000000     0.292630000000    -0.0980197  
C55      C      0.431870000000     0.580380000000     0.294450000000     0.0218723  
C56      C      0.408790000000     0.571880000000     0.276180000000    -0.0646791  
C57      C      0.196570000000     0.494670000000     0.973190000000    -0.0642134  
C58      C      0.210830000000     0.517510000000     0.993070000000     0.0228028  
C59      C      0.212690000000     0.553510000000     0.985540000000    -0.0639179  
C60      C      0.201050000000     0.566190000000     0.958680000000     0.0214399  
C61      C      0.186940000000     0.543270000000     0.938910000000    -0.0988409  
C62      C      0.184610000000     0.507460000000     0.946540000000     0.0220155  
C63      C      0.223610000000     0.503880000000     0.021510000000     0.0225586  
C64      C      0.210290000000     0.476860000000     0.037990000000    -0.0642918  
C65      C      0.221990000000     0.464500000000     0.064920000000     0.021769   
C66      C      0.247080000000     0.479150000000     0.076230000000    -0.098872   
C67      C      0.260590000000     0.505880000000     0.059770000000     0.0214166  
C68      C      0.249090000000     0.517950000000     0.032610000000    -0.0639172  
C69      C      0.437900000000     0.522400000000     0.535270000000    -0.0641477  
C70      C      0.457610000000     0.501890000000     0.519260000000     0.0226065  
C71      C      0.966100000000     0.469330000000     0.531450000000    -0.0644803  
C72      C      0.455340000000     0.457740000000     0.559090000000     0.0212609  
C73      C      0.435800000000     0.478390000000     0.575090000000    -0.0986428  
C74      C      0.427070000000     0.510740000000     0.562830000000     0.0216551  
C75      C      0.969310000000     0.514570000000     0.490050000000     0.0214106  
C76      C      0.451890000000     0.532150000000     0.469250000000    -0.064693   
C77      C      0.462890000000     0.544730000000     0.442090000000     0.0216469  
C78      C      0.991540000000     0.539890000000     0.435000000000    -0.0968531  
C79      C      0.008980000000     0.522050000000     0.455570000000     0.0182329  
C80      C      0.997990000000     0.509570000000     0.482850000000    -0.0610767  
C81      C      0.303420000000     0.529270000000     0.719870000000    -0.0639881  
C82      C      0.300380000000     0.517970000000     0.749900000000     0.0227264  
C83      C      0.320280000000     0.494310000000     0.761880000000    -0.0646103  
C84      C      0.342300000000     0.481540000000     0.744070000000     0.0216468  
C85      C      0.344940000000     0.492100000000     0.713850000000    -0.0980019  
C86      C      0.325480000000     0.516390000000     0.701980000000     0.0214267  
C87      C      0.275990000000     0.529560000000     0.768440000000     0.0227712  
C88      C      0.267000000000     0.564920000000     0.768460000000    -0.0640991  
C89      C      0.243930000000     0.575400000000     0.786070000000     0.0213631  
C90      C      0.229350000000     0.550650000000     0.803780000000    -0.0982291  
C91      C      0.238320000000     0.515350000000     0.803660000000     0.0218298  
C92      C      0.261360000000     0.504940000000     0.786240000000    -0.064608   
C93      C      0.015970000000     0.463180000000     0.747720000000    -0.0658555  
C94      C      0.025230000000     0.498410000000     0.747040000000     0.0236719  
C95      C      0.011080000000     0.522610000000     0.728390000000    -0.0661633  
C96      C      0.488180000000     0.511900000000     0.710860000000     0.0218293  
C97      C      0.478930000000     0.476720000000     0.711490000000    -0.0982361  
C98      C      0.993070000000     0.452410000000     0.730020000000     0.0232613  
C99      C      0.049440000000     0.510210000000     0.765750000000     0.0224074  
C100     C      0.051950000000     0.499600000000     0.796020000000    -0.0640179  
C101     C      0.074060000000     0.512260000000     0.813930000000     0.0215938  
C102     C      0.094120000000     0.535620000000     0.801850000000    -0.0982928  
C103     C      0.091910000000     0.545650000000     0.771460000000     0.021706   
C104     C      0.069820000000     0.533110000000     0.753620000000    -0.0645664  
C105     C      0.055480000000     0.783670000000     0.859410000000    -0.0639176  
C106     C      0.083420000000     0.780220000000     0.869790000000     0.0224633  
C107     C      0.097910000000     0.810540000000     0.879430000000    -0.0641597  
C108     C      0.084940000000     0.843630000000     0.878260000000     0.020627   
C109     C      0.057240000000     0.847140000000     0.867270000000    -0.0972706  
C110     C      0.042560000000     0.816800000000     0.858090000000     0.020887   
C111     C      0.097610000000     0.745250000000     0.869720000000     0.0225444  
C112     C      0.083130000000     0.714890000000     0.879280000000    -0.0642894  
C113     C      0.096110000000     0.681800000000     0.877980000000     0.0207577  
C114     C      0.123780000000     0.678330000000     0.866920000000    -0.0973589  
C115     C      0.138440000000     0.708710000000     0.857800000000     0.0209259  
C116     C      0.125520000000     0.741840000000     0.859260000000    -0.0638916  
C117     C      0.332920000000     0.310520000000     0.637920000000    -0.0644087  
C118     C      0.347510000000     0.280280000000     0.647580000000     0.0226029  
C119     C      0.375440000000     0.283870000000     0.657940000000    -0.064077   
C120     C      0.388280000000     0.317040000000     0.659180000000     0.0213872  
C121     C      0.373510000000     0.347290000000     0.649930000000    -0.0983068  
C122     C      0.345810000000     0.343650000000     0.639000000000     0.0211842  
C123     C      0.333440000000     0.245260000000     0.647660000000     0.0227251  
C124     C      0.305550000000     0.241720000000     0.658140000000    -0.0641763  
C125     C      0.292720000000     0.208540000000     0.659510000000     0.0214331  
C126     C      0.307450000000     0.178260000000     0.650280000000    -0.0983152  
C127     C      0.335110000000     0.181870000000     0.639230000000     0.0212412  
C128     C      0.348000000000     0.215000000000     0.638010000000    -0.0645275  
C129     C      0.360820000000     0.031520000000     0.762560000000    -0.0645513  
C130     C      0.380670000000     0.007770000000     0.750620000000     0.0226658  
C131     C      0.377580000000     0.996380000000     0.720630000000    -0.0639321  
C132     C      0.355520000000     0.009260000000     0.702730000000     0.0214198  
C133     C      0.336110000000     0.033630000000     0.714560000000    -0.0980129  
C134     C      0.338800000000     0.044290000000     0.744750000000     0.021619   
C135     C      0.405050000000     0.996160000000     0.769180000000     0.0228839  
C136     C      0.419720000000     0.020770000000     0.786930000000    -0.0646633  
C137     C      0.442760000000     0.010330000000     0.804360000000     0.0217205  
C138     C      0.451660000000     0.975000000000     0.804520000000    -0.0980845  
C139     C      0.437030000000     0.950260000000     0.786850000000     0.0213668  
C140     C      0.413970000000     0.960770000000     0.769230000000    -0.0641677  
C141     C      0.111210000000     0.992570000000     0.754350000000    -0.0646611  
C142     C      0.131590000000     0.015440000000     0.766510000000     0.0227963  
C143     C      0.129080000000     0.026020000000     0.796780000000    -0.0641839  
C144     C      0.106960000000     0.013350000000     0.814680000000     0.021668   
C145     C      0.086900000000     0.990010000000     0.802580000000    -0.0983127  
C146     C      0.089100000000     0.980020000000     0.772170000000     0.0216891  
C147     C      0.155820000000     0.027220000000     0.747820000000     0.0228011  
C148     C      0.169960000000     0.003020000000     0.729180000000    -0.064624   
C149     C      0.192870000000     0.013720000000     0.711640000000     0.0217285  
C150     C      0.202130000000     0.048890000000     0.712270000000    -0.098135   
C151     C      0.187990000000     0.073220000000     0.730800000000     0.021543   
C152     C      0.165090000000     0.062450000000     0.748500000000    -0.0641681  
C153     C      0.098320000000     0.802050000000     0.393970000000    -0.0646023  
C154     C      0.099060000000     0.778870000000     0.369260000000     0.0228814  
C155     C      0.115390000000     0.787800000000     0.343940000000    -0.0649648  
C156     C      0.129930000000     0.819760000000     0.342880000000     0.0230821  
C157     C      0.128270000000     0.843660000000     0.367000000000    -0.0979645  
C158     C      0.112680000000     0.834310000000     0.392770000000     0.0214818  
C159     C      0.082230000000     0.745940000000     0.369190000000     0.0228139  
C160     C      0.083110000000     0.722500000000     0.393710000000    -0.0645169  
C161     C      0.068730000000     0.690270000000     0.392370000000     0.0213273  
C162     C      0.052970000000     0.681210000000     0.366640000000    -0.0978634  
C163     C      0.051170000000     0.705350000000     0.342710000000     0.0228816  
C164     C      0.065750000000     0.737290000000     0.343920000000    -0.0648875  
C165     C      0.228980000000     0.993150000000     0.470080000000    -0.0646639  
C166     C      0.211520000000     0.010600000000     0.490930000000     0.0228045  
C167     C      0.182810000000     0.015430000000     0.483780000000    -0.0644442  
C168     C      0.171830000000     0.002910000000     0.456510000000     0.0218405  
C169     C      0.189310000000     0.985200000000     0.435900000000    -0.100225   
C170     C      0.217990000000     0.980530000000     0.442930000000     0.0217081  
C171     C      0.223220000000     0.023330000000     0.520120000000     0.0225976  
C172     C      0.243040000000     0.002940000000     0.536080000000    -0.0641287  
C173     C      0.253890000000     0.014660000000     0.563610000000     0.0216008  
C174     C      0.245080000000     0.046970000000     0.575880000000    -0.0985738  
C175     C      0.225420000000     0.067510000000     0.559930000000     0.0211898  
C176     C      0.214640000000     0.055850000000     0.532320000000    -0.0642889  
C177     C      0.305530000000     0.285450000000     0.149780000000    -0.0644493  
C178     C      0.334050000000     0.280500000000     0.157860000000     0.0229074  
C179     C      0.350050000000     0.310180000000     0.166320000000    -0.0648163  
C180     C      0.337950000000     0.343770000000     0.166530000000     0.0226528  
C181     C      0.309450000000     0.348490000000     0.158830000000    -0.101555   
C182     C      0.293300000000     0.319030000000     0.150530000000     0.0223562  
C183     C      0.346970000000     0.244590000000     0.157920000000     0.0228902  
C184     C      0.330850000000     0.214880000000     0.165980000000    -0.0647147  
C185     C      0.342940000000     0.181290000000     0.166330000000     0.0224957  
C186     C      0.371570000000     0.176620000000     0.159150000000    -0.101314   
C187     C      0.387840000000     0.206110000000     0.151240000000     0.0223393  
C188     C      0.375620000000     0.239690000000     0.150350000000    -0.064447   
C189     C      0.468480000000     0.971680000000     0.986340000000    -0.0639689  
C190     C      0.970410000000     0.007650000000     0.993960000000     0.0228745  
C191     C      0.984680000000     0.030520000000     0.974130000000    -0.0643123  
C192     C      0.996600000000     0.017810000000     0.947420000000     0.022743   
C193     C      0.994200000000     0.982030000000     0.939700000000    -0.0980079  
C194     C      0.980080000000     0.959070000000     0.959420000000     0.0212314  
C195     C      0.457650000000     0.021210000000     0.022430000000     0.022552   
C196     C      0.432130000000     0.007180000000     0.033490000000    -0.0640075  
C197     C      0.420640000000     0.019220000000     0.060660000000     0.0214557  
C198     C      0.434190000000     0.045880000000     0.077170000000    -0.0988703  
C199     C      0.459320000000     0.060470000000     0.065920000000     0.0217853  
C200     C      0.971010000000     0.048140000000     0.038980000000    -0.0642557  
C201     C      0.272310000000     0.953610000000     0.277330000000    -0.0647636  
C202     C      0.270440000000     0.981360000000     0.256430000000     0.0229684  
C203     C      0.244900000000     0.999920000000     0.253680000000    -0.0645254  
C204     C      0.221940000000     0.991640000000     0.272150000000     0.0212636  
C205     C      0.223980000000     0.964360000000     0.293460000000    -0.0982109  
C206     C      0.249210000000     0.945020000000     0.295540000000     0.0220005  
C207     C      0.295500000000     0.992460000000     0.238820000000     0.022335   
C208     C      0.321510000000     0.997790000000     0.253350000000    -0.0637144  
C209     C      0.344500000000     0.011580000000     0.237530000000     0.0205115  
C210     C      0.342020000000     0.019900000000     0.206790000000    -0.0948773  
C211     C      0.316370000000     0.013240000000     0.191930000000     0.0211195  
C212     C      0.293240000000     0.999880000000     0.207870000000    -0.063933   
C213     C      0.061610000000     0.037660000000     0.289340000000    -0.063852   
C214     C      0.042620000000     0.014250000000     0.275340000000     0.0221888  
C215     C      0.045840000000     0.977850000000     0.280240000000    -0.0643167  
C216     C      0.068090000000     0.965030000000     0.297640000000     0.0215938  
C217     C      0.087570000000     0.988280000000     0.310850000000    -0.0977008  
C218     C      0.083880000000     0.024760000000     0.307000000000     0.0214396  
C219     C      0.019960000000     0.027240000000     0.254950000000     0.0239544  
C220     C      0.004190000000     0.057610000000     0.261950000000    -0.0660728  
C221     C      0.982100000000     0.068550000000     0.243120000000     0.0241846  
C222     C      0.975380000000     0.049270000000     0.217030000000    -0.0997967  
C223     C      0.991550000000     0.019450000000     0.209710000000     0.0242637  
C224     C      0.013620000000     0.008670000000     0.228350000000    -0.0665269  
C225     C      0.865450000000     0.037620000000     0.190930000000     0.352496   
C226     C      0.923010000000     0.057300000000     0.106700000000     0.356766   
C227     C      0.884170000000     0.141020000000     0.160050000000     0.357641   
C228     C      0.951200000000     0.059220000000     0.197780000000     0.362626   
C229     C      0.612170000000     0.973910000000     0.327210000000     0.356616   
C230     C      0.677920000000     0.971450000000     0.407190000000     0.358396   
C231     C      0.640880000000     0.879110000000     0.364040000000     0.360188   
C232     C      0.700330000000     0.957180000000     0.314250000000     0.355045   
C233     C      0.813480000000     0.048640000000     0.695580000000     0.357161   
C234     C      0.755630000000     0.058610000000     0.605620000000     0.35698    
C235     C      0.726720000000     0.059680000000     0.693990000000     0.357507   
C236     C      0.794510000000     0.142960000000     0.653190000000     0.355945   
C237     C      0.564000000000     0.975500000000     0.821480000000     0.357763   
C238     C      0.505360000000     0.969060000000     0.910630000000     0.357409   
C239     C      0.476390000000     0.964590000000     0.822760000000     0.35682    
C240     C      0.544260000000     0.882440000000     0.864260000000     0.355101   
C241     C      0.867560000000     0.477060000000     0.694870000000     0.357437   
C242     C      0.925290000000     0.466830000000     0.604860000000     0.357173   
C243     C      0.954330000000     0.465930000000     0.693220000000     0.357837   
C244     C      0.886470000000     0.382610000000     0.652710000000     0.356405   
C245     C      0.617010000000     0.550090000000     0.820780000000     0.358096   
C246     C      0.675740000000     0.556310000000     0.909890000000     0.357278   
C247     C      0.704620000000     0.561020000000     0.822030000000     0.356977   
C248     C      0.636770000000     0.643050000000     0.863790000000     0.355041   
C249     C      0.568690000000     0.551260000000     0.326110000000     0.356752   
C250     C      0.502960000000     0.553620000000     0.406300000000     0.357821   
C251     C      0.540290000000     0.645810000000     0.363520000000     0.359897   
C252     C      0.480600000000     0.567870000000     0.313460000000     0.355032   
C253     C      0.815530000000     0.487810000000     0.189920000000     0.352515   
C254     C      0.758220000000     0.467750000000     0.105780000000     0.356832   
C255     C      0.796870000000     0.384090000000     0.159560000000     0.358017   
C256     C      0.729740000000     0.465830000000     0.196840000000     0.362432   
C257     C      0.676920000000     0.467790000000     0.261150000000    -0.0646148  
C258     C      0.660870000000     0.497820000000     0.253830000000     0.0232168  
C259     C      0.666950000000     0.516010000000     0.226970000000    -0.0650179  
C260     C      0.689060000000     0.505210000000     0.208390000000     0.0228242  
C261     C      0.705520000000     0.475750000000     0.216020000000    -0.0992065  
C262     C      0.699040000000     0.456830000000     0.242380000000     0.0227524  
C263     C      0.638190000000     0.510890000000     0.274170000000     0.0226062  
C264     C      0.619490000000     0.487490000000     0.288620000000    -0.0639996  
C265     C      0.597230000000     0.500420000000     0.306280000000     0.0215775  
C266     C      0.593260000000     0.536920000000     0.309680000000    -0.0977366  
C267     C      0.612440000000     0.560180000000     0.295990000000     0.0216888  
C268     C      0.634680000000     0.547330000000     0.278590000000    -0.0644148  
C269     C      0.887860000000     0.525120000000     0.206930000000    -0.0639529  
C270     C      0.885490000000     0.532930000000     0.237810000000     0.0223524  
C271     C      0.859360000000     0.528070000000     0.252220000000    -0.0637034  
C272     C      0.836370000000     0.514330000000     0.236390000000     0.0205123  
C273     C      0.838960000000     0.505580000000     0.205740000000    -0.0947987  
C274     C      0.864730000000     0.511790000000     0.190980000000     0.0212125  
C275     C      0.910540000000     0.543920000000     0.255480000000     0.0229995  
C276     C      0.935970000000     0.525040000000     0.253000000000    -0.0645181  
C277     C      0.958900000000     0.533240000000     0.271520000000     0.0215246  
C278     C      0.956970000000     0.560740000000     0.292630000000    -0.0984234  
C279     C      0.931870000000     0.580380000000     0.294450000000     0.0221551  
C280     C      0.908790000000     0.571890000000     0.276180000000    -0.0647723  
C281     C      0.696570000000     0.494670000000     0.973190000000    -0.0642166  
C282     C      0.710830000000     0.517510000000     0.993070000000     0.0228222  
C283     C      0.712690000000     0.553510000000     0.985540000000    -0.0639215  
C284     C      0.701050000000     0.566190000000     0.958680000000     0.0214923  
C285     C      0.686940000000     0.543270000000     0.938910000000    -0.0989134  
C286     C      0.684610000000     0.507460000000     0.946540000000     0.0220743  
C287     C      0.723610000000     0.503880000000     0.021510000000     0.0225858  
C288     C      0.710300000000     0.476860000000     0.037990000000    -0.064319   
C289     C      0.722000000000     0.464500000000     0.064920000000     0.0218596  
C290     C      0.747080000000     0.479150000000     0.076230000000    -0.0989182  
C291     C      0.760590000000     0.505880000000     0.059770000000     0.0214819  
C292     C      0.749100000000     0.517950000000     0.032610000000    -0.0639597  
C293     C      0.937890000000     0.522400000000     0.535270000000    -0.0644056  
C294     C      0.957610000000     0.501890000000     0.519250000000     0.0232587  
C295     C      0.466100000000     0.469330000000     0.531450000000    -0.0642605  
C296     C      0.955340000000     0.457740000000     0.559090000000     0.0214974  
C297     C      0.935800000000     0.478390000000     0.575090000000    -0.0988256  
C298     C      0.927070000000     0.510740000000     0.562830000000     0.0219008  
C299     C      0.469310000000     0.514570000000     0.490060000000     0.0228256  
C300     C      0.951890000000     0.532150000000     0.469240000000    -0.0634864  
C301     C      0.962890000000     0.544730000000     0.442090000000     0.0202161  
C302     C      0.491540000000     0.539890000000     0.435010000000    -0.100022   
C303     C      0.508980000000     0.522050000000     0.455570000000     0.0217895  
C304     C      0.497990000000     0.509570000000     0.482860000000    -0.0643821  
C305     C      0.803420000000     0.529270000000     0.719870000000    -0.0640266  
C306     C      0.800380000000     0.517970000000     0.749900000000     0.022804   
C307     C      0.820280000000     0.494310000000     0.761880000000    -0.064706   
C308     C      0.842300000000     0.481540000000     0.744070000000     0.0217547  
C309     C      0.844940000000     0.492100000000     0.713850000000    -0.0981008  
C310     C      0.825480000000     0.516390000000     0.701980000000     0.021508   
C311     C      0.775990000000     0.529560000000     0.768440000000     0.0227442  
C312     C      0.767000000000     0.564920000000     0.768450000000    -0.0640531  
C313     C      0.743930000000     0.575400000000     0.786070000000     0.021319   
C314     C      0.729360000000     0.550650000000     0.803780000000    -0.098109   
C315     C      0.738320000000     0.515350000000     0.803660000000     0.0217867  
C316     C      0.761360000000     0.504940000000     0.786240000000    -0.0645649  
C317     C      0.515970000000     0.463180000000     0.747730000000    -0.0642381  
C318     C      0.525230000000     0.498410000000     0.747040000000     0.0228488  
C319     C      0.511080000000     0.522610000000     0.728390000000    -0.0646375  
C320     C      0.988180000000     0.511900000000     0.710850000000     0.0233578  
C321     C      0.978930000000     0.476720000000     0.711490000000    -0.0989735  
C322     C      0.493070000000     0.452410000000     0.730020000000     0.0216767  
C323     C      0.549440000000     0.510210000000     0.765750000000     0.0228189  
C324     C      0.551950000000     0.499600000000     0.796020000000    -0.0641385  
C325     C      0.574060000000     0.512260000000     0.813930000000     0.0217647  
C326     C      0.594120000000     0.535620000000     0.801860000000    -0.0984167  
C327     C      0.591910000000     0.545650000000     0.771460000000     0.0218158  
C328     C      0.569820000000     0.533110000000     0.753620000000    -0.0647075  
C329     C      0.555480000000     0.783670000000     0.859410000000    -0.0638678  
C330     C      0.583420000000     0.780210000000     0.869790000000     0.0224867  
C331     C      0.597910000000     0.810540000000     0.879430000000    -0.0641363  
C332     C      0.584940000000     0.843630000000     0.878260000000     0.0206893  
C333     C      0.557240000000     0.847140000000     0.867270000000    -0.0973038  
C334     C      0.542560000000     0.816800000000     0.858090000000     0.0209475  
C335     C      0.597610000000     0.745250000000     0.869720000000     0.0225128  
C336     C      0.583140000000     0.714880000000     0.879280000000    -0.0641636  
C337     C      0.596110000000     0.681800000000     0.877990000000     0.0207347  
C338     C      0.623780000000     0.678330000000     0.866920000000    -0.0972897  
C339     C      0.638450000000     0.708710000000     0.857800000000     0.0208766  
C340     C      0.625520000000     0.741840000000     0.859260000000    -0.0638179  
C341     C      0.832920000000     0.310520000000     0.637920000000    -0.0643402  
C342     C      0.847510000000     0.280280000000     0.647580000000     0.0226254  
C343     C      0.875440000000     0.283870000000     0.657940000000    -0.064049   
C344     C      0.888280000000     0.317040000000     0.659170000000     0.0213821  
C345     C      0.873510000000     0.347290000000     0.649930000000    -0.0981996  
C346     C      0.845810000000     0.343660000000     0.639000000000     0.0211052  
C347     C      0.833440000000     0.245270000000     0.647650000000     0.0226301  
C348     C      0.805550000000     0.241720000000     0.658140000000    -0.0640899  
C349     C      0.792720000000     0.208540000000     0.659510000000     0.0213696  
C350     C      0.807450000000     0.178270000000     0.650280000000    -0.098127   
C351     C      0.835120000000     0.181870000000     0.639230000000     0.0210516  
C352     C      0.848000000000     0.215000000000     0.638010000000    -0.0643097  
C353     C      0.860820000000     0.031530000000     0.762560000000    -0.064549   
C354     C      0.880670000000     0.007770000000     0.750630000000     0.0226881  
C355     C      0.877590000000     0.996380000000     0.720630000000    -0.063934   
C356     C      0.855530000000     0.009260000000     0.702730000000     0.0214215  
C357     C      0.836110000000     0.033630000000     0.714560000000    -0.097986   
C358     C      0.838810000000     0.044300000000     0.744750000000     0.021639   
C359     C      0.905050000000     0.996160000000     0.769180000000     0.0228945  
C360     C      0.919720000000     0.020770000000     0.786930000000    -0.064607   
C361     C      0.942760000000     0.010330000000     0.804360000000     0.0217387  
C362     C      0.951660000000     0.975000000000     0.804520000000    -0.09795    
C363     C      0.937030000000     0.950260000000     0.786850000000     0.0213497  
C364     C      0.913970000000     0.960770000000     0.769230000000    -0.0640978  
C365     C      0.611210000000     0.992560000000     0.754350000000    -0.0646201  
C366     C      0.631590000000     0.015440000000     0.766510000000     0.0227922  
C367     C      0.629080000000     0.026020000000     0.796780000000    -0.0641066  
C368     C      0.606960000000     0.013350000000     0.814680000000     0.0215801  
C369     C      0.586900000000     0.990000000000     0.802570000000    -0.0981022  
C370     C      0.589100000000     0.980020000000     0.772170000000     0.0216896  
C371     C      0.655820000000     0.027220000000     0.747820000000     0.0227966  
C372     C      0.669970000000     0.003020000000     0.729180000000    -0.0645625  
C373     C      0.692870000000     0.013720000000     0.711640000000     0.0217347  
C374     C      0.702130000000     0.048890000000     0.712270000000    -0.0981191  
C375     C      0.687990000000     0.073220000000     0.730800000000     0.0215519  
C376     C      0.665090000000     0.062450000000     0.748500000000    -0.064142   
C377     C      0.598330000000     0.802040000000     0.393970000000    -0.0645691  
C378     C      0.599060000000     0.778870000000     0.369260000000     0.0229134  
C379     C      0.615380000000     0.787800000000     0.343940000000    -0.0649628  
C380     C      0.629930000000     0.819760000000     0.342880000000     0.0231188  
C381     C      0.628270000000     0.843650000000     0.367000000000    -0.0979848  
C382     C      0.612680000000     0.834300000000     0.392770000000     0.0215258  
C383     C      0.582230000000     0.745930000000     0.369190000000     0.0228937  
C384     C      0.583120000000     0.722500000000     0.393710000000    -0.0645512  
C385     C      0.568740000000     0.690270000000     0.392370000000     0.0214193  
C386     C      0.552970000000     0.681210000000     0.366640000000    -0.0979283  
C387     C      0.551170000000     0.705350000000     0.342710000000     0.0229936  
C388     C      0.565750000000     0.737290000000     0.343920000000    -0.0648995  
C389     C      0.728980000000     0.993150000000     0.470080000000    -0.0646792  
C390     C      0.711520000000     0.010600000000     0.490930000000     0.0228197  
C391     C      0.682810000000     0.015430000000     0.483780000000    -0.0644121  
C392     C      0.671830000000     0.002910000000     0.456510000000     0.0218953  
C393     C      0.689310000000     0.985200000000     0.435900000000    -0.100348   
C394     C      0.717990000000     0.980530000000     0.442930000000     0.0217776  
C395     C      0.723220000000     0.023330000000     0.520120000000     0.0226177  
C396     C      0.743040000000     0.002940000000     0.536080000000    -0.0641335  
C397     C      0.753890000000     0.014670000000     0.563610000000     0.0216431  
C398     C      0.745080000000     0.046970000000     0.575880000000    -0.0985851  
C399     C      0.725420000000     0.067510000000     0.559930000000     0.0212135  
C400     C      0.714640000000     0.055850000000     0.532320000000    -0.0642832  
C401     C      0.805530000000     0.285450000000     0.149780000000    -0.0644937  
C402     C      0.834050000000     0.280500000000     0.157860000000     0.0229279  
C403     C      0.850040000000     0.310180000000     0.166320000000    -0.0647308  
C404     C      0.837950000000     0.343770000000     0.166540000000     0.0226619  
C405     C      0.809450000000     0.348490000000     0.158830000000    -0.101623   
C406     C      0.793310000000     0.319030000000     0.150530000000     0.0224802  
C407     C      0.846970000000     0.244590000000     0.157920000000     0.0228906  
C408     C      0.830840000000     0.214880000000     0.165980000000    -0.0646891  
C409     C      0.842940000000     0.181290000000     0.166330000000     0.0224761  
C410     C      0.871570000000     0.176620000000     0.159150000000    -0.101265   
C411     C      0.887840000000     0.206110000000     0.151250000000     0.0223274  
C412     C      0.875620000000     0.239690000000     0.150360000000    -0.0644105  
C413     C      0.968480000000     0.971680000000     0.986340000000    -0.063802   
C414     C      0.470410000000     0.007650000000     0.993950000000     0.0228507  
C415     C      0.484680000000     0.030520000000     0.974130000000    -0.0641989  
C416     C      0.496600000000     0.017810000000     0.947420000000     0.0219633  
C417     C      0.494200000000     0.982030000000     0.939700000000    -0.0988514  
C418     C      0.480080000000     0.959070000000     0.959420000000     0.0214707  
C419     C      0.957650000000     0.021210000000     0.022440000000     0.0226356  
C420     C      0.932130000000     0.007180000000     0.033490000000    -0.0639923  
C421     C      0.920640000000     0.019220000000     0.060660000000     0.0215074  
C422     C      0.934190000000     0.045880000000     0.077180000000    -0.0989298  
C423     C      0.959320000000     0.060470000000     0.065920000000     0.0218744  
C424     C      0.471010000000     0.048140000000     0.038980000000    -0.0642573  
C425     C      0.772300000000     0.953610000000     0.277330000000    -0.0646768  
C426     C      0.770440000000     0.981350000000     0.256430000000     0.0229233  
C427     C      0.744890000000     0.999910000000     0.253680000000    -0.0645011  
C428     C      0.721940000000     0.991630000000     0.272150000000     0.0212701  
C429     C      0.723980000000     0.964360000000     0.293460000000    -0.098119   
C430     C      0.749210000000     0.945020000000     0.295540000000     0.0219608  
C431     C      0.795500000000     0.992460000000     0.238820000000     0.02239    
C432     C      0.821510000000     0.997790000000     0.253360000000    -0.0638053  
C433     C      0.844490000000     0.011580000000     0.237530000000     0.0205906  
C434     C      0.842020000000     0.019900000000     0.206790000000    -0.0948378  
C435     C      0.816370000000     0.013240000000     0.191930000000     0.0211308  
C436     C      0.793240000000     0.999880000000     0.207870000000    -0.0639452  
C437     C      0.561610000000     0.037660000000     0.289340000000    -0.0639769  
C438     C      0.542620000000     0.014250000000     0.275350000000     0.0225937  
C439     C      0.545840000000     0.977850000000     0.280250000000    -0.0644006  
C440     C      0.568090000000     0.965030000000     0.297650000000     0.0216986  
C441     C      0.587560000000     0.988280000000     0.310850000000    -0.0976398  
C442     C      0.583880000000     0.024760000000     0.307000000000     0.0215268  
C443     C      0.519960000000     0.027240000000     0.254950000000     0.0231312  
C444     C      0.504190000000     0.057610000000     0.261950000000    -0.0644658  
C445     C      0.482100000000     0.068550000000     0.243120000000     0.0226243  
C446     C      0.475380000000     0.049270000000     0.217030000000    -0.0990346  
C447     C      0.491550000000     0.019450000000     0.209710000000     0.0226627  
C448     C      0.513620000000     0.008670000000     0.228360000000    -0.0649282  
H1       H      0.154620000000     0.538740000000     0.220250000000     0.0483629  
H2       H      0.193360000000     0.520140000000     0.188070000000     0.0399802  
H3       H      0.211410000000     0.434000000000     0.248800000000     0.0403212  
H4       H      0.172870000000     0.453300000000     0.281740000000     0.0483967  
H5       H      0.121530000000     0.459280000000     0.285550000000     0.048182   
H6       H      0.082710000000     0.481900000000     0.316560000000     0.0404328  
H7       H      0.110130000000     0.588450000000     0.298480000000     0.040536   
H8       H      0.149090000000     0.566090000000     0.268460000000     0.048186   
H9       H      0.357010000000     0.533580000000     0.276060000000     0.0485683  
H10      H      0.316740000000     0.509840000000     0.248320000000     0.0404707  
H11      H      0.367320000000     0.505250000000     0.167370000000     0.0420307  
H12      H      0.407720000000     0.528880000000     0.195250000000     0.0485831  
H13      H      0.437800000000     0.503120000000     0.237450000000     0.0486523  
H14      H      0.978020000000     0.517700000000     0.269590000000     0.0399234  
H15      H      0.429810000000     0.601740000000     0.310520000000     0.0413248  
H16      H      0.389480000000     0.586970000000     0.278410000000     0.0487397  
H17      H      0.222970000000     0.572070000000     0.000510000000     0.047894   
H18      H      0.203070000000     0.593970000000     0.953420000000     0.0391985  
H19      H      0.174070000000     0.489110000000     0.931580000000     0.0411129  
H20      H      0.195060000000     0.466720000000     0.977900000000     0.0480124  
H21      H      0.190440000000     0.465720000000     0.030510000000     0.0478731  
H22      H      0.210970000000     0.444050000000     0.077260000000     0.0396302  
H23      H      0.280020000000     0.517570000000     0.067910000000     0.040522   
H24      H      0.260290000000     0.538260000000     0.020300000000     0.0479769  
H25      H      0.980920000000     0.452620000000     0.519530000000     0.0482862  
H26      H      0.962420000000     0.432630000000     0.567960000000     0.0398501  
H27      H      0.412160000000     0.527340000000     0.574740000000     0.0417128  
H28      H      0.431190000000     0.547840000000     0.526800000000     0.0483187  
H29      H      0.429630000000     0.535950000000     0.473800000000     0.048124   
H30      H      0.448880000000     0.558190000000     0.426600000000     0.040177   
H31      H      0.031160000000     0.518020000000     0.450730000000     0.0409467  
H32      H      0.012090000000     0.496540000000     0.498520000000     0.0468267  
H33      H      0.318760000000     0.485540000000     0.785070000000     0.0483078  
H34      H      0.357080000000     0.463030000000     0.753930000000     0.0406178  
H35      H      0.327040000000     0.525020000000     0.678760000000     0.041483   
H36      H      0.288290000000     0.547290000000     0.709960000000     0.0486716  
H37      H      0.277990000000     0.584520000000     0.755120000000     0.0486011  
H38      H      0.237450000000     0.602790000000     0.785710000000     0.0411346  
H39      H      0.227450000000     0.495620000000     0.816990000000     0.040792   
H40      H      0.267480000000     0.477410000000     0.786370000000     0.0484267  
H41      H      0.017450000000     0.550040000000     0.727680000000     0.0485836  
H42      H      0.477650000000     0.531290000000     0.696880000000     0.0405295  
H43      H      0.986370000000     0.425110000000     0.730960000000     0.0412319  
H44      H      0.026600000000     0.443890000000     0.761690000000     0.048919   
H45      H      0.036430000000     0.482210000000     0.806060000000     0.0485514  
H46      H      0.075260000000     0.504070000000     0.837290000000     0.0414321  
H47      H      0.107140000000     0.563480000000     0.761460000000     0.0404337  
H48      H      0.068690000000     0.541360000000     0.730270000000     0.0482251  
H49      H      0.119330000000     0.808680000000     0.887860000000     0.0482777  
H50      H      0.096790000000     0.866530000000     0.885540000000     0.0403943  
H51      H      0.021210000000     0.818700000000     0.849460000000     0.0416243  
H52      H      0.043850000000     0.760870000000     0.851540000000     0.048421   
H53      H      0.061740000000     0.716700000000     0.887780000000     0.0482623  
H54      H      0.084270000000     0.658860000000     0.885220000000     0.0403295  
H55      H      0.159770000000     0.706850000000     0.849130000000     0.0417544  
H56      H      0.137150000000     0.764670000000     0.851440000000     0.0484892  
H57      H      0.387140000000     0.261130000000     0.665830000000     0.0485709  
H58      H      0.409640000000     0.319040000000     0.667750000000     0.0416395  
H59      H      0.333900000000     0.366490000000     0.631680000000     0.0401558  
H60      H      0.311500000000     0.308550000000     0.629510000000     0.0483259  
H61      H      0.293880000000     0.264480000000     0.666030000000     0.0485891  
H62      H      0.271390000000     0.206570000000     0.668180000000     0.0416045  
H63      H      0.347000000000     0.159000000000     0.631910000000     0.0401538  
H64      H      0.369380000000     0.216930000000     0.629500000000     0.0483835  
H65      H      0.392670000000     0.978290000000     0.710740000000     0.0486658  
H66      H      0.353930000000     0.000540000000     0.679530000000     0.0414838  
H67      H      0.324060000000     0.062870000000     0.754580000000     0.0406138  
H68      H      0.362370000000     0.040370000000     0.785730000000     0.0482758  
H69      H      0.413660000000     0.048310000000     0.787030000000     0.048463   
H70      H      0.953660000000     0.030050000000     0.817660000000     0.0409256  
H71      H      0.443470000000     0.922840000000     0.786520000000     0.0411625  
H72      H      0.402940000000     0.941180000000     0.755930000000     0.0486411  
H73      H      0.144600000000     0.043390000000     0.806840000000     0.0486995  
H74      H      0.105750000000     0.021510000000     0.838050000000     0.0414233  
H75      H      0.073870000000     0.962210000000     0.762150000000     0.0403828  
H76      H      0.112340000000     0.984340000000     0.730990000000     0.0482748  
H77      H      0.163590000000     0.975600000000     0.728470000000     0.0484151  
H78      H      0.203400000000     0.994330000000     0.697670000000     0.0405675  
H79      H      0.194700000000     0.100510000000     0.731740000000     0.0414187  
H80      H      0.154450000000     0.081750000000     0.762470000000     0.0486202  
H81      H      0.116670000000     0.770160000000     0.324770000000     0.0490972  
H82      H      0.141800000000     0.826180000000     0.322730000000     0.0419819  
H83      H      0.111020000000     0.852240000000     0.411700000000     0.0391927  
H84      H      0.085870000000     0.795780000000     0.413740000000     0.0484007  
H85      H      0.095690000000     0.728560000000     0.413440000000     0.0483954  
H86      H      0.070490000000     0.672140000000     0.411140000000     0.0392079  
H87      H      0.039180000000     0.699150000000     0.322600000000     0.0419515  
H88      H      0.064360000000     0.755140000000     0.324900000000     0.0490276  
H89      H      0.168690000000     0.028360000000     0.499480000000     0.0481967  
H90      H      0.149630000000     0.006810000000     0.451710000000     0.0400653  
H91      H      0.232040000000     0.967170000000     0.427410000000     0.0401684  
H92      H      0.251270000000     0.989480000000     0.474590000000     0.048099   
H93      H      0.249820000000     0.977530000000     0.527590000000     0.0483081  
H94      H      0.268890000000     0.998150000000     0.575480000000     0.0417385  
H95      H      0.218280000000     0.092580000000     0.568810000000     0.0397996  
H96      H      0.199740000000     0.072470000000     0.520440000000     0.0480264  
H97      H      0.371840000000     0.307520000000     0.173310000000     0.0479412  
H98      H      0.350860000000     0.366010000000     0.173250000000     0.0388056  
H99      H      0.271320000000     0.321990000000     0.144270000000     0.0388881  
H100     H      0.292620000000     0.263450000000     0.142570000000     0.0478039  
H101     H      0.308940000000     0.217510000000     0.172570000000     0.047881   
H102     H      0.329930000000     0.159010000000     0.172740000000     0.0388372  
H103     H      0.409930000000     0.203180000000     0.145380000000     0.0389368  
H104     H      0.388640000000     0.261720000000     0.143450000000     0.0478321  
H105     H      0.986240000000     0.058460000000     0.978910000000     0.048207   
H106     H      0.007160000000     0.036190000000     0.932510000000     0.0404119  
H107     H      0.978010000000     0.931310000000     0.954090000000     0.0394253  
H108     H      0.458180000000     0.953100000000     0.001260000000     0.0479443  
H109     H      0.420910000000     0.986950000000     0.021130000000     0.0480454  
H110     H      0.401170000000     0.007590000000     0.068750000000     0.0405333  
H111     H      0.970370000000     0.080860000000     0.078310000000     0.0397136  
H112     H      0.990890000000     0.059240000000     0.031530000000     0.0480257  
H113     H      0.242970000000     0.021660000000     0.237970000000     0.0486401  
H114     H      0.202720000000     0.006940000000     0.270020000000     0.0396958  
H115     H      0.251360000000     0.923840000000     0.311770000000     0.0412944  
H116     H      0.291720000000     0.938760000000     0.279760000000     0.0487597  
H117     H      0.323770000000     0.992590000000     0.277250000000     0.0485351  
H118     H      0.364040000000     0.016400000000     0.249540000000     0.0404531  
H119     H      0.313870000000     0.019450000000     0.168240000000     0.0419906  
H120     H      0.273470000000     0.995760000000     0.196090000000     0.0485593  
H121     H      0.031220000000     0.959110000000     0.270450000000     0.0480851  
H122     H      0.070190000000     0.936770000000     0.300460000000     0.0405079  
H123     H      0.098620000000     0.043270000000     0.316920000000     0.0404712  
H124     H      0.059790000000     0.065840000000     0.285920000000     0.0481061  
H125     H      0.008440000000     0.072400000000     0.282340000000     0.0485797  
H126     H      0.469960000000     0.091660000000     0.249300000000     0.0404052  
H127     H      0.987060000000     0.004240000000     0.189600000000     0.0398764  
H128     H      0.025740000000     0.985660000000     0.221870000000     0.0485876  
H129     H      0.654610000000     0.538730000000     0.220240000000     0.0483906  
H130     H      0.693350000000     0.520130000000     0.188070000000     0.040007   
H131     H      0.711410000000     0.434010000000     0.248810000000     0.0403309  
H132     H      0.672880000000     0.453310000000     0.281740000000     0.0484504  
H133     H      0.621530000000     0.459280000000     0.285560000000     0.0482436  
H134     H      0.582720000000     0.481900000000     0.316570000000     0.0405002  
H135     H      0.610120000000     0.588450000000     0.298460000000     0.0405583  
H136     H      0.649080000000     0.566090000000     0.268450000000     0.0482318  
H137     H      0.857010000000     0.533580000000     0.276060000000     0.048548   
H138     H      0.816740000000     0.509840000000     0.248320000000     0.0404859  
H139     H      0.867320000000     0.505260000000     0.167360000000     0.0420648  
H140     H      0.907720000000     0.528880000000     0.195240000000     0.0486532  
H141     H      0.937800000000     0.503120000000     0.237450000000     0.0487501  
H142     H      0.478010000000     0.517690000000     0.269600000000     0.039778   
H143     H      0.929810000000     0.601740000000     0.310520000000     0.0413222  
H144     H      0.889480000000     0.586980000000     0.278410000000     0.0488059  
H145     H      0.722970000000     0.572070000000     0.000510000000     0.0479167  
H146     H      0.703070000000     0.593970000000     0.953420000000     0.0392064  
H147     H      0.674070000000     0.489110000000     0.931580000000     0.0411361  
H148     H      0.695060000000     0.466720000000     0.977900000000     0.0480447  
H149     H      0.690450000000     0.465720000000     0.030510000000     0.047917   
H150     H      0.710970000000     0.444050000000     0.077260000000     0.0396354  
H151     H      0.780020000000     0.517570000000     0.067910000000     0.0405348  
H152     H      0.760290000000     0.538260000000     0.020300000000     0.0480247  
H153     H      0.480920000000     0.452620000000     0.519530000000     0.0480336  
H154     H      0.462420000000     0.432630000000     0.567960000000     0.0398028  
H155     H      0.912160000000     0.527340000000     0.574740000000     0.0417056  
H156     H      0.931190000000     0.547840000000     0.526790000000     0.0484672  
H157     H      0.929630000000     0.535950000000     0.473790000000     0.047865   
H158     H      0.948870000000     0.558190000000     0.426590000000     0.0406233  
H159     H      0.531160000000     0.518010000000     0.450730000000     0.0401989  
H160     H      0.512090000000     0.496540000000     0.498520000000     0.0482342  
H161     H      0.818770000000     0.485540000000     0.785060000000     0.0483875  
H162     H      0.857080000000     0.463030000000     0.753930000000     0.0406292  
H163     H      0.827040000000     0.525030000000     0.678760000000     0.0414842  
H164     H      0.788290000000     0.547290000000     0.709960000000     0.0487016  
H165     H      0.777990000000     0.584520000000     0.755110000000     0.0486161  
H166     H      0.737450000000     0.602790000000     0.785710000000     0.0411672  
H167     H      0.727450000000     0.495620000000     0.816990000000     0.0408224  
H168     H      0.767480000000     0.477410000000     0.786370000000     0.0484357  
H169     H      0.517450000000     0.550030000000     0.727680000000     0.0484245  
H170     H      0.977650000000     0.531290000000     0.696870000000     0.0403465  
H171     H      0.486370000000     0.425110000000     0.730970000000     0.0414177  
H172     H      0.526600000000     0.443880000000     0.761700000000     0.0486928  
H173     H      0.536430000000     0.482200000000     0.806060000000     0.048706   
H174     H      0.575260000000     0.504070000000     0.837290000000     0.0414647  
H175     H      0.607140000000     0.563470000000     0.761460000000     0.0404489  
H176     H      0.568690000000     0.541360000000     0.730270000000     0.0483479  
H177     H      0.619330000000     0.808680000000     0.887860000000     0.0483027  
H178     H      0.596790000000     0.866530000000     0.885540000000     0.0404196  
H179     H      0.521220000000     0.818700000000     0.849460000000     0.0417716  
H180     H      0.543850000000     0.760870000000     0.851540000000     0.0485147  
H181     H      0.561740000000     0.716700000000     0.887780000000     0.048302   
H182     H      0.584270000000     0.658860000000     0.885220000000     0.0404065  
H183     H      0.659780000000     0.706850000000     0.849130000000     0.041786   
H184     H      0.637150000000     0.764670000000     0.851440000000     0.0484933  
H185     H      0.887140000000     0.261130000000     0.665830000000     0.0486251  
H186     H      0.909640000000     0.319040000000     0.667740000000     0.0417154  
H187     H      0.833900000000     0.366490000000     0.631680000000     0.0401889  
H188     H      0.811500000000     0.308550000000     0.629500000000     0.0483235  
H189     H      0.793880000000     0.264480000000     0.666030000000     0.0485881  
H190     H      0.771390000000     0.206580000000     0.668180000000     0.0416344  
H191     H      0.846990000000     0.159000000000     0.631910000000     0.0402533  
H192     H      0.869390000000     0.216940000000     0.629490000000     0.0483548  
H193     H      0.892670000000     0.978290000000     0.710740000000     0.0487518  
H194     H      0.853930000000     0.000540000000     0.679530000000     0.0415291  
H195     H      0.824060000000     0.062870000000     0.754580000000     0.0406283  
H196     H      0.862370000000     0.040380000000     0.785730000000     0.0483     
H197     H      0.913660000000     0.048310000000     0.787030000000     0.0485137  
H198     H      0.453660000000     0.030050000000     0.817650000000     0.0408097  
H199     H      0.943470000000     0.922850000000     0.786520000000     0.041284   
H200     H      0.902940000000     0.941180000000     0.755930000000     0.0486837  
H201     H      0.644600000000     0.043390000000     0.806840000000     0.0487151  
H202     H      0.605750000000     0.021510000000     0.838050000000     0.0415105  
H203     H      0.573880000000     0.962210000000     0.762150000000     0.0404853  
H204     H      0.612340000000     0.984340000000     0.730990000000     0.0483339  
H205     H      0.663600000000     0.975590000000     0.728470000000     0.0484071  
H206     H      0.703400000000     0.994330000000     0.697670000000     0.0405848  
H207     H      0.694700000000     0.100510000000     0.731740000000     0.041446   
H208     H      0.654450000000     0.081750000000     0.762470000000     0.0486621  
H209     H      0.616660000000     0.770160000000     0.324770000000     0.0491247  
H210     H      0.641800000000     0.826180000000     0.322730000000     0.0419981  
H211     H      0.611030000000     0.852240000000     0.411700000000     0.0392371  
H212     H      0.585870000000     0.795770000000     0.413740000000     0.0484534  
H213     H      0.595700000000     0.728550000000     0.413440000000     0.0484522  
H214     H      0.570500000000     0.672130000000     0.411140000000     0.0392567  
H215     H      0.539170000000     0.699150000000     0.322600000000     0.0420394  
H216     H      0.564350000000     0.755140000000     0.324900000000     0.0491081  
H217     H      0.668680000000     0.028360000000     0.499480000000     0.0482172  
H218     H      0.649630000000     0.006810000000     0.451710000000     0.0400945  
H219     H      0.732040000000     0.967170000000     0.427410000000     0.0401642  
H220     H      0.751270000000     0.989480000000     0.474590000000     0.0481286  
H221     H      0.749820000000     0.977530000000     0.527590000000     0.0483352  
H222     H      0.768890000000     0.998160000000     0.575480000000     0.0417578  
H223     H      0.718280000000     0.092580000000     0.568810000000     0.0398236  
H224     H      0.699740000000     0.072470000000     0.520440000000     0.04806    
H225     H      0.871840000000     0.307510000000     0.173320000000     0.0479414  
H226     H      0.850860000000     0.366010000000     0.173260000000     0.0388396  
H227     H      0.771320000000     0.322000000000     0.144260000000     0.0388823  
H228     H      0.792620000000     0.263450000000     0.142570000000     0.0478384  
H229     H      0.808930000000     0.217500000000     0.172570000000     0.0478959  
H230     H      0.829930000000     0.159010000000     0.172730000000     0.0388608  
H231     H      0.909920000000     0.203180000000     0.145390000000     0.0390156  
H232     H      0.888640000000     0.261720000000     0.143460000000     0.0478821  
H233     H      0.486240000000     0.058450000000     0.978910000000     0.0480363  
H234     H      0.507150000000     0.036180000000     0.932500000000     0.041166   
H235     H      0.478010000000     0.931310000000     0.954090000000     0.0392     
H236     H      0.958180000000     0.953100000000     0.001260000000     0.0479877  
H237     H      0.920900000000     0.986950000000     0.021130000000     0.0480679  
H238     H      0.901170000000     0.007590000000     0.068750000000     0.0405548  
H239     H      0.470370000000     0.080860000000     0.078310000000     0.0396252  
H240     H      0.490890000000     0.059240000000     0.031530000000     0.047888   
H241     H      0.742970000000     0.021650000000     0.237970000000     0.0486552  
H242     H      0.702720000000     0.006930000000     0.270020000000     0.0397166  
H243     H      0.751360000000     0.923840000000     0.311770000000     0.0413251  
H244     H      0.791720000000     0.938760000000     0.279760000000     0.0487497  
H245     H      0.823770000000     0.992590000000     0.277250000000     0.0486158  
H246     H      0.864030000000     0.016410000000     0.249550000000     0.0404858  
H247     H      0.813870000000     0.019450000000     0.168240000000     0.0420163  
H248     H      0.773470000000     0.995760000000     0.196090000000     0.048583   
H249     H      0.531210000000     0.959110000000     0.270460000000     0.048225   
H250     H      0.570190000000     0.936770000000     0.300470000000     0.0405596  
H251     H      0.598630000000     0.043270000000     0.316920000000     0.0405041  
H252     H      0.559790000000     0.065840000000     0.285920000000     0.0482339  
H253     H      0.508440000000     0.072410000000     0.282340000000     0.0483854  
H254     H      0.969950000000     0.091650000000     0.249300000000     0.0402079  
H255     H      0.487060000000     0.004240000000     0.189600000000     0.0400689  
H256     H      0.525740000000     0.985660000000     0.221880000000     0.0483748  
In1      In     0.406170000000     0.075050000000     0.163010000000     2.39475    
In2      In     0.158170000000     0.945980000000     0.354210000000     2.39661    
In3      In     0.272560000000     0.077900000000     0.661400000000     2.41525    
In4      In     0.022450000000     0.947450000000     0.855510000000     2.40995    
In5      In     0.408440000000     0.447680000000     0.660710000000     2.41521    
In6      In     0.158570000000     0.578070000000     0.854830000000     2.41239    
In7      In     0.022790000000     0.579090000000     0.353360000000     2.39601    
In8      In     0.274880000000     0.450100000000     0.162170000000     2.39377    
In9      In     0.906160000000     0.075050000000     0.163010000000     2.39461    
In10     In     0.658170000000     0.945970000000     0.354210000000     2.39663    
In11     In     0.772560000000     0.077900000000     0.661400000000     2.41526    
In12     In     0.522450000000     0.947450000000     0.855510000000     2.41238    
In13     In     0.908440000000     0.447690000000     0.660710000000     2.41547    
In14     In     0.658580000000     0.578070000000     0.854830000000     2.41243    
In15     In     0.522790000000     0.579090000000     0.353370000000     2.39724    
In16     In     0.774880000000     0.450100000000     0.162170000000     2.39389    
O1       O      0.442590000000     0.039660000000     0.176690000000    -0.498172   
O2       O      0.437050000000     0.087130000000     0.201510000000    -0.478704   
O3       O      0.404310000000     0.040310000000     0.120820000000    -0.479598   
O4       O      0.365800000000     0.042090000000     0.162690000000    -0.469617   
O5       O      0.410410000000     0.135490000000     0.160970000000    -0.480593   
O6       O      0.385830000000     0.051530000000     0.204890000000    -0.488736   
O7       O      0.432610000000     0.083670000000     0.120630000000    -0.494475   
O8       O      0.369300000000     0.113560000000     0.160400000000    -0.497094   
O9       O      0.179790000000     0.978020000000     0.317280000000    -0.492      
O10      O      0.199580000000     0.930520000000     0.331230000000    -0.475409   
O11      O      0.152880000000     0.976680000000     0.398520000000    -0.483473   
O12      O      0.129060000000     0.992600000000     0.342430000000    -0.47215    
O13      O      0.154980000000     0.888140000000     0.341160000000    -0.481914   
O14      O      0.118500000000     0.941680000000     0.325940000000    -0.496294   
O15      O      0.192680000000     0.953400000000     0.389310000000    -0.498405   
O16      O      0.136190000000     0.903680000000     0.382600000000    -0.490756   
O17      O      0.306850000000     0.115230000000     0.644620000000    -0.498261   
O18      O      0.270790000000     0.137960000000     0.665490000000    -0.481475   
O19      O      0.273780000000     0.041460000000     0.620440000000    -0.482947   
O20      O      0.310220000000     0.040790000000     0.668110000000    -0.477161   
O21      O      0.235430000000     0.091120000000     0.692530000000    -0.477673   
O22      O      0.296180000000     0.071060000000     0.705560000000    -0.499505   
O23      O      0.246430000000     0.085820000000     0.618710000000    -0.49855    
O24      O      0.240970000000     0.037820000000     0.678930000000    -0.499988   
O25      O      0.056600000000     0.910220000000     0.872730000000    -0.496441   
O26      O      0.020550000000     0.887360000000     0.851880000000    -0.48053    
O27      O      0.021260000000     0.987370000000     0.894030000000    -0.482075   
O28      O      0.061390000000     0.982480000000     0.849190000000    -0.477939   
O29      O      0.984910000000     0.933150000000     0.825110000000    -0.475586   
O30      O      0.045740000000     0.954540000000     0.811150000000    -0.499296   
O31      O      0.998630000000     0.939490000000     0.899780000000    -0.496545   
O32      O      0.990940000000     0.986900000000     0.836970000000    -0.498741   
O33      O      0.374110000000     0.410300000000     0.644120000000    -0.498579   
O34      O      0.410220000000     0.387640000000     0.664910000000    -0.481763   
O35      O      0.407220000000     0.484080000000     0.619720000000    -0.482935   
O36      O      0.370770000000     0.484780000000     0.667380000000    -0.477265   
O37      O      0.445600000000     0.434500000000     0.691810000000    -0.477667   
O38      O      0.384900000000     0.454700000000     0.704900000000    -0.499469   
O39      O      0.434450000000     0.439610000000     0.617960000000    -0.498736   
O40      O      0.440080000000     0.487780000000     0.678150000000    -0.499668   
O41      O      0.124440000000     0.615230000000     0.872190000000    -0.496742   
O42      O      0.160450000000     0.638180000000     0.851350000000    -0.480597   
O43      O      0.159810000000     0.538050000000     0.893270000000    -0.482312   
O44      O      0.119640000000     0.543050000000     0.848470000000    -0.478306   
O45      O      0.196070000000     0.592450000000     0.824400000000    -0.476215   
O46      O      0.135260000000     0.571100000000     0.810480000000    -0.499584   
O47      O      0.182440000000     0.585930000000     0.899090000000    -0.497717   
O48      O      0.190100000000     0.538690000000     0.836250000000    -0.499636   
O49      O      0.001020000000     0.546880000000     0.316660000000    -0.493122   
O50      O      0.981490000000     0.594700000000     0.330240000000    -0.475355   
O51      O      0.027970000000     0.548220000000     0.397590000000    -0.482466   
O52      O      0.052100000000     0.532620000000     0.341740000000    -0.472291   
O53      O      0.025990000000     0.637050000000     0.340700000000    -0.48187    
O54      O      0.062110000000     0.583400000000     0.324550000000    -0.496362   
O55      O      0.988270000000     0.571840000000     0.388480000000    -0.496923   
O56      O      0.045090000000     0.621050000000     0.381850000000    -0.490792   
O57      O      0.238220000000     0.485260000000     0.175600000000    -0.497909   
O58      O      0.244080000000     0.438110000000     0.200780000000    -0.478831   
O59      O      0.276820000000     0.484810000000     0.119970000000    -0.479818   
O60      O      0.315370000000     0.482820000000     0.161740000000    -0.469443   
O61      O      0.270620000000     0.389650000000     0.159980000000    -0.480547   
O62      O      0.294990000000     0.474280000000     0.203890000000    -0.488685   
O63      O      0.248630000000     0.441340000000     0.119660000000    -0.494036   
O64      O      0.311740000000     0.411530000000     0.160230000000    -0.497107   
O65      O      0.942590000000     0.039660000000     0.176690000000    -0.498104   
O66      O      0.937050000000     0.087130000000     0.201510000000    -0.478687   
O67      O      0.904310000000     0.040310000000     0.120820000000    -0.479601   
O68      O      0.865790000000     0.042090000000     0.162690000000    -0.469573   
O69      O      0.910410000000     0.135490000000     0.160970000000    -0.480485   
O70      O      0.885830000000     0.051530000000     0.204890000000    -0.488767   
O71      O      0.932610000000     0.083670000000     0.120630000000    -0.494305   
O72      O      0.869300000000     0.113560000000     0.160390000000    -0.497206   
O73      O      0.679780000000     0.978020000000     0.317280000000    -0.491784   
O74      O      0.699580000000     0.930520000000     0.331230000000    -0.47545    
O75      O      0.652880000000     0.976680000000     0.398520000000    -0.48344    
O76      O      0.629060000000     0.992600000000     0.342430000000    -0.472      
O77      O      0.654970000000     0.888140000000     0.341160000000    -0.482192   
O78      O      0.618490000000     0.941680000000     0.325940000000    -0.496144   
O79      O      0.692670000000     0.953400000000     0.389310000000    -0.498654   
O80      O      0.636190000000     0.903670000000     0.382600000000    -0.490872   
O81      O      0.806850000000     0.115230000000     0.644620000000    -0.498213   
O82      O      0.770790000000     0.137960000000     0.665490000000    -0.481432   
O83      O      0.773780000000     0.041460000000     0.620440000000    -0.482932   
O84      O      0.810220000000     0.040790000000     0.668110000000    -0.477139   
O85      O      0.735430000000     0.091120000000     0.692530000000    -0.477658   
O86      O      0.796180000000     0.071060000000     0.705560000000    -0.499495   
O87      O      0.746430000000     0.085820000000     0.618710000000    -0.498534   
O88      O      0.740970000000     0.037820000000     0.678930000000    -0.499979   
O89      O      0.556600000000     0.910220000000     0.872720000000    -0.496753   
O90      O      0.520560000000     0.887360000000     0.851870000000    -0.480558   
O91      O      0.521260000000     0.987370000000     0.894030000000    -0.482487   
O92      O      0.561390000000     0.982480000000     0.849190000000    -0.477972   
O93      O      0.484910000000     0.933140000000     0.825110000000    -0.476049   
O94      O      0.545740000000     0.954530000000     0.811150000000    -0.499264   
O95      O      0.498630000000     0.939490000000     0.899770000000    -0.498215   
O96      O      0.490950000000     0.986890000000     0.836970000000    -0.499587   
O97      O      0.874110000000     0.410310000000     0.644120000000    -0.498456   
O98      O      0.910220000000     0.387640000000     0.664910000000    -0.481498   
O99      O      0.907220000000     0.484080000000     0.619710000000    -0.48291    
O100     O      0.870760000000     0.484780000000     0.667380000000    -0.477365   
O101     O      0.945600000000     0.434500000000     0.691800000000    -0.477739   
O102     O      0.884900000000     0.454700000000     0.704890000000    -0.4996     
O103     O      0.934450000000     0.439610000000     0.617960000000    -0.498629   
O104     O      0.940080000000     0.487780000000     0.678140000000    -0.499868   
O105     O      0.624440000000     0.615230000000     0.872190000000    -0.496592   
O106     O      0.660450000000     0.638180000000     0.851350000000    -0.480548   
O107     O      0.659820000000     0.538050000000     0.893270000000    -0.482413   
O108     O      0.619640000000     0.543050000000     0.848470000000    -0.478158   
O109     O      0.696070000000     0.592450000000     0.824400000000    -0.476325   
O110     O      0.635260000000     0.571100000000     0.810480000000    -0.499431   
O111     O      0.682440000000     0.585930000000     0.899090000000    -0.497869   
O112     O      0.690100000000     0.538690000000     0.836250000000    -0.499722   
O113     O      0.501020000000     0.546870000000     0.316670000000    -0.492201   
O114     O      0.481490000000     0.594700000000     0.330240000000    -0.475466   
O115     O      0.527970000000     0.548220000000     0.397590000000    -0.483242   
O116     O      0.552100000000     0.532620000000     0.341750000000    -0.472277   
O117     O      0.525990000000     0.637050000000     0.340710000000    -0.481933   
O118     O      0.562110000000     0.583390000000     0.324540000000    -0.496366   
O119     O      0.488270000000     0.571840000000     0.388490000000    -0.498473   
O120     O      0.545090000000     0.621050000000     0.381850000000    -0.49098    
O121     O      0.738220000000     0.485250000000     0.175600000000    -0.498042   
O122     O      0.744090000000     0.438110000000     0.200790000000    -0.478723   
O123     O      0.776820000000     0.484810000000     0.119970000000    -0.479819   
O124     O      0.815370000000     0.482820000000     0.161740000000    -0.469396   
O125     O      0.770620000000     0.389650000000     0.159980000000    -0.480437   
O126     O      0.794990000000     0.474280000000     0.203890000000    -0.488612   
O127     O      0.748630000000     0.441340000000     0.119660000000    -0.494039   
O128     O      0.811740000000     0.411530000000     0.160230000000    -0.497147   


