data_structure

_audit_creation_method RASPA-1.0
_audit_creation_date 2023-5-22
_audit_author_name 'Poobodin Mano'

_cell_length_a    67.4524
_cell_length_b    67.4425
_cell_length_c    67.4886
_cell_angle_alpha 90.1892
_cell_angle_beta  89.9076
_cell_angle_gamma 89.7161
_cell_volume      307010

_symmetry_cell_setting          triclinic
_symmetry_space_group_name_Hall 'P 1'
_symmetry_space_group_name_H-M  'P 1'
_symmetry_Int_Tables_number     1

_symmetry_equiv_pos_as_xyz 'x,y,z'

loop_
_atom_site_label
_atom_site_type_symbol
_atom_site_fract_x
_atom_site_fract_y
_atom_site_fract_z
_atom_site_charge
C1       C      0.071450000000     0.321960000000     0.891980000000     0.359475   
C2       C      0.142610000000     0.323240000000     0.892280000000     0.358438   
C3       C      0.110430000000     0.321310000000     0.943290000000     0.35338    
C4       C      0.105060000000     0.271380000000     0.893860000000     0.352821   
C5       C      0.131980000000     0.370740000000     0.154220000000     0.358679   
C6       C      0.134820000000     0.370540000000     0.082300000000     0.357673   
C7       C      0.133640000000     0.421110000000     0.119360000000     0.356689   
C8       C      0.183680000000     0.369960000000     0.117540000000     0.354584   
C9       C      0.142280000000     0.819860000000     0.093510000000     0.357433   
C10      C      0.070090000000     0.818100000000     0.094220000000     0.357309   
C11      C      0.106610000000     0.818870000000     0.043660000000     0.356359   
C12      C      0.105310000000     0.769020000000     0.095020000000     0.354886   
C13      C      0.083460000000     0.559160000000     0.147490000000     0.359117   
C14      C      0.082330000000     0.630550000000     0.145400000000     0.3571     
C15      C      0.031710000000     0.596570000000     0.147110000000     0.356097   
C16      C      0.082830000000     0.593240000000     0.196760000000     0.355213   
C17      C      0.078850000000     0.309770000000     0.344580000000     0.359442   
C18      C      0.081560000000     0.380260000000     0.342320000000     0.358236   
C19      C      0.078790000000     0.347430000000     0.291720000000     0.35435    
C20      C      0.028430000000     0.343100000000     0.340350000000     0.353214   
C21      C      0.323130000000     0.321240000000     0.093630000000     0.359146   
C22      C      0.394090000000     0.319790000000     0.095550000000     0.358979   
C23      C      0.361220000000     0.269240000000     0.092420000000     0.353054   
C24      C      0.356650000000     0.319330000000     0.043190000000     0.352999   
C25      C      0.825410000000     0.613910000000     0.095030000000     0.362016   
C26      C      0.894080000000     0.619560000000     0.093960000000     0.358062   
C27      C      0.854850000000     0.624860000000     0.041410000000     0.357162   
C28      C      0.860530000000     0.669950000000     0.092400000000     0.35983    
C29      C      0.633280000000     0.069310000000     0.903280000000     0.356309   
C30      C      0.628990000000     0.067660000000     0.832710000000     0.357141   
C31      C      0.682490000000     0.067690000000     0.869550000000     0.358024   
C32      C      0.634900000000     0.016630000000     0.864820000000     0.357653   
C33      C      0.581090000000     0.058280000000     0.644320000000     0.357207   
C34      C      0.577260000000     0.129190000000     0.642620000000     0.358943   
C35      C      0.528230000000     0.095020000000     0.644170000000     0.355187   
C36      C      0.576510000000     0.092180000000     0.695390000000     0.356763   
C37      C      0.389980000000     0.119120000000     0.593340000000     0.356593   
C38      C      0.318540000000     0.120790000000     0.594970000000     0.356278   
C39      C      0.356100000000     0.170810000000     0.594420000000     0.356877   
C40      C      0.352400000000     0.120950000000     0.543520000000     0.356541   
C41      C      0.081190000000     0.881080000000     0.646510000000     0.357715   
C42      C      0.081060000000     0.808880000000     0.644750000000     0.35783    
C43      C      0.081290000000     0.846430000000     0.695650000000     0.355567   
C44      C      0.030830000000     0.844290000000     0.645020000000     0.356177   
C45      C      0.631790000000     0.870360000000     0.580760000000     0.356936   
C46      C      0.632870000000     0.866830000000     0.651810000000     0.356211   
C47      C      0.683110000000     0.869280000000     0.614570000000     0.357126   
C48      C      0.632440000000     0.919690000000     0.619760000000     0.357565   
C49      C      0.576940000000     0.809540000000     0.840970000000     0.357595   
C50      C      0.582260000000     0.880480000000     0.836310000000     0.355034   
C51      C      0.578980000000     0.842900000000     0.788420000000     0.357291   
C52      C      0.528140000000     0.848370000000     0.838400000000     0.357569   
C53      C      0.879460000000     0.880780000000     0.143830000000     0.3596     
C54      C      0.880720000000     0.809570000000     0.141440000000     0.35834    
C55      C      0.931130000000     0.842310000000     0.144180000000     0.35343    
C56      C      0.880740000000     0.846670000000     0.193700000000     0.352755   
C57      C      0.576200000000     0.631740000000     0.341890000000     0.35633    
C58      C      0.579600000000     0.560450000000     0.339360000000     0.356111   
C59      C      0.526800000000     0.597100000000     0.338110000000     0.356941   
C60      C      0.578670000000     0.594160000000     0.289670000000     0.357769   
C61      C      0.632180000000     0.374370000000     0.335310000000     0.359308   
C62      C      0.632960000000     0.371620000000     0.406270000000     0.35738    
C63      C      0.684120000000     0.374420000000     0.372960000000     0.357011   
C64      C      0.633010000000     0.423850000000     0.368940000000     0.354589   
C65      C      0.633440000000     0.566260000000     0.153450000000     0.360236   
C66      C      0.635650000000     0.571130000000     0.084000000000     0.358679   
C67      C      0.687640000000     0.562310000000     0.116830000000     0.357945   
C68      C      0.636130000000     0.516470000000     0.119880000000     0.357198   
C69      C      0.581700000000     0.307880000000     0.147300000000     0.357119   
C70      C      0.583540000000     0.379700000000     0.146940000000     0.35796    
C71      C      0.532450000000     0.342970000000     0.146420000000     0.356531   
C72      C      0.582320000000     0.345160000000     0.197740000000     0.357112   
C73      C      0.829150000000     0.868440000000     0.332270000000     0.356278   
C74      C      0.831000000000     0.869080000000     0.403550000000     0.355701   
C75      C      0.830070000000     0.919530000000     0.366450000000     0.356596   
C76      C      0.779090000000     0.869880000000     0.370060000000     0.35695    
C77      C      0.373500000000     0.810490000000     0.348360000000     0.356027   
C78      C      0.377800000000     0.881090000000     0.347090000000     0.357576   
C79      C      0.427350000000     0.841550000000     0.345440000000     0.356572   
C80      C      0.376770000000     0.845770000000     0.296420000000     0.356654   
C81      C      0.568110000000     0.820460000000     0.391040000000     0.3586     
C82      C      0.639450000000     0.821850000000     0.391270000000     0.358381   
C83      C      0.606980000000     0.820320000000     0.442150000000     0.353718   
C84      C      0.601510000000     0.770030000000     0.392810000000     0.353189   
C85      C      0.381030000000     0.309840000000     0.642970000000     0.358435   
C86      C      0.381300000000     0.381140000000     0.644320000000     0.359331   
C87      C      0.382320000000     0.347620000000     0.694640000000     0.353713   
C88      C      0.432200000000     0.341860000000     0.644710000000     0.353587   
C89      C      0.570850000000     0.316870000000     0.594140000000     0.358273   
C90      C      0.642860000000     0.317450000000     0.593510000000     0.356659   
C91      C      0.606420000000     0.266740000000     0.593020000000     0.356521   
C92      C      0.608790000000     0.318740000000     0.543740000000     0.355794   
C93      C      0.144610000000     0.618520000000     0.594440000000     0.358977   
C94      C      0.073390000000     0.619340000000     0.595900000000     0.358641   
C95      C      0.105820000000     0.670190000000     0.593990000000     0.353245   
C96      C      0.111390000000     0.620620000000     0.543970000000     0.353659   
C97      C      0.136130000000     0.569300000000     0.405620000000     0.358788   
C98      C      0.135420000000     0.567080000000     0.333980000000     0.356834   
C99      C      0.186790000000     0.565140000000     0.370870000000     0.356244   
C100     C      0.134190000000     0.517730000000     0.367530000000     0.356113   
C101     C      0.391100000000     0.625000000000     0.393160000000     0.36032    
C102     C      0.322680000000     0.617310000000     0.400210000000     0.359542   
C103     C      0.361150000000     0.625960000000     0.449800000000     0.35609    
C104     C      0.351630000000     0.674080000000     0.402090000000     0.355793   
C105     C      0.338690000000     0.573090000000     0.586540000000     0.356308   
C106     C      0.334160000000     0.572760000000     0.657130000000     0.357693   
C107     C      0.284750000000     0.571370000000     0.617650000000     0.356551   
C108     C      0.335090000000     0.521620000000     0.622340000000     0.357408   
C109     C      0.132830000000     0.869470000000     0.905920000000     0.359961   
C110     C      0.129720000000     0.871020000000     0.834710000000     0.357365   
C111     C      0.132000000000     0.921910000000     0.869050000000     0.356444   
C112     C      0.181710000000     0.871300000000     0.871280000000     0.354535   
C113     C      0.332230000000     0.370800000000     0.833590000000     0.356425   
C114     C      0.333070000000     0.370880000000     0.905230000000     0.35647    
C115     C      0.332570000000     0.421470000000     0.868640000000     0.356342   
C116     C      0.282060000000     0.371330000000     0.870890000000     0.356792   
C117     C      0.391860000000     0.825770000000     0.893600000000     0.355962   
C118     C      0.321040000000     0.822010000000     0.893410000000     0.356546   
C119     C      0.359970000000     0.772600000000     0.895030000000     0.357362   
C120     C      0.355520000000     0.823140000000     0.944750000000     0.357844   
C121     C      0.381950000000     0.632240000000     0.848060000000     0.358772   
C122     C      0.380790000000     0.560900000000     0.847390000000     0.359004   
C123     C      0.382740000000     0.594010000000     0.796720000000     0.353242   
C124     C      0.432320000000     0.598920000000     0.846830000000     0.353532   
C125     C      0.890880000000     0.121560000000     0.894190000000     0.357305   
C126     C      0.819540000000     0.119530000000     0.896880000000     0.358945   
C127     C      0.854210000000     0.121240000000     0.945820000000     0.35489    
C128     C      0.856220000000     0.171950000000     0.896250000000     0.356179   
C129     C      0.642790000000     0.623330000000     0.896040000000     0.357763   
C130     C      0.570750000000     0.623650000000     0.896920000000     0.357707   
C131     C      0.609380000000     0.623390000000     0.946710000000     0.355485   
C132     C      0.605500000000     0.673440000000     0.895200000000     0.357323   
C133     C      0.822400000000     0.819600000000     0.591490000000     0.356923   
C134     C      0.893720000000     0.816940000000     0.593180000000     0.358856   
C135     C      0.859440000000     0.767880000000     0.592110000000     0.355271   
C136     C      0.856640000000     0.817310000000     0.540990000000     0.356076   
C137     C      0.882610000000     0.630010000000     0.644500000000     0.356366   
C138     C      0.883570000000     0.558600000000     0.643060000000     0.356163   
C139     C      0.934000000000     0.595780000000     0.644180000000     0.356903   
C140     C      0.883300000000     0.592330000000     0.694480000000     0.356588   
C141     C      0.832600000000     0.569980000000     0.833180000000     0.357241   
C142     C      0.827970000000     0.574080000000     0.904110000000     0.358376   
C143     C      0.780350000000     0.571210000000     0.869150000000     0.356441   
C144     C      0.829440000000     0.519760000000     0.869320000000     0.358365   
C145     C      0.879390000000     0.310150000000     0.845600000000     0.356795   
C146     C      0.880810000000     0.381160000000     0.847880000000     0.355945   
C147     C      0.931240000000     0.343620000000     0.845220000000     0.356642   
C148     C      0.880650000000     0.348180000000     0.795600000000     0.357095   
C149     C      0.821190000000     0.320000000000     0.397790000000     0.355441   
C150     C      0.891360000000     0.316840000000     0.393180000000     0.357119   
C151     C      0.854540000000     0.317390000000     0.447240000000     0.358875   
C152     C      0.858870000000     0.266180000000     0.399920000000     0.356383   
C153     C      0.828820000000     0.369070000000     0.585080000000     0.358365   
C154     C      0.831310000000     0.371010000000     0.656590000000     0.35707    
C155     C      0.830040000000     0.421040000000     0.621800000000     0.3559     
C156     C      0.779940000000     0.370210000000     0.619430000000     0.355528   
C157     C      0.331550000000     0.869120000000     0.084910000000     0.359001   
C158     C      0.331140000000     0.868910000000     0.156390000000     0.358492   
C159     C      0.330980000000     0.919730000000     0.123710000000     0.354446   
C160     C      0.280590000000     0.870270000000     0.117800000000     0.353841   
C161     C      0.885260000000     0.128950000000     0.347980000000     0.35735    
C162     C      0.880710000000     0.057990000000     0.343680000000     0.356318   
C163     C      0.883860000000     0.094540000000     0.293500000000     0.358385   
C164     C      0.932780000000     0.093260000000     0.344870000000     0.356398   
C165     C      0.081710000000     0.132040000000     0.845380000000     0.356629   
C166     C      0.080810000000     0.060570000000     0.847330000000     0.356432   
C167     C      0.030490000000     0.098140000000     0.846040000000     0.355941   
C168     C      0.080640000000     0.093830000000     0.795660000000     0.357026   
C169     C      0.141330000000     0.122010000000     0.394680000000     0.355902   
C170     C      0.070040000000     0.118890000000     0.396550000000     0.356152   
C171     C      0.107540000000     0.121160000000     0.446150000000     0.357487   
C172     C      0.102530000000     0.171320000000     0.395560000000     0.356839   
C173     C      0.128700000000     0.070380000000     0.656130000000     0.358432   
C174     C      0.129830000000     0.071710000000     0.585050000000     0.358963   
C175     C      0.180340000000     0.069820000000     0.618270000000     0.353629   
C176     C      0.130750000000     0.019840000000     0.622980000000     0.35447    
C177     C      0.832330000000     0.073370000000     0.155440000000     0.355949   
C178     C      0.833550000000     0.070480000000     0.084350000000     0.356807   
C179     C      0.831700000000     0.020870000000     0.122610000000     0.35626    
C180     C      0.782010000000     0.071730000000     0.118040000000     0.357226   
C181     C      0.642670000000     0.119430000000     0.092390000000     0.35703    
C182     C      0.571150000000     0.120720000000     0.092890000000     0.358397   
C183     C      0.604780000000     0.170150000000     0.093370000000     0.355081   
C184     C      0.608890000000     0.121030000000     0.041480000000     0.355915   
C185     C      0.332460000000     0.072130000000     0.332640000000     0.358862   
C186     C      0.330410000000     0.073450000000     0.403680000000     0.35933    
C187     C      0.280190000000     0.071870000000     0.370290000000     0.353455   
C188     C      0.329640000000     0.021550000000     0.365960000000     0.35256    
C189     C      0.383870000000     0.130420000000     0.142640000000     0.358306   
C190     C      0.382630000000     0.058170000000     0.145290000000     0.356957   
C191     C      0.433480000000     0.094180000000     0.143490000000     0.356224   
C192     C      0.382420000000     0.093900000000     0.193760000000     0.355203   
C193     C      0.367480000000     0.081380000000     0.289870000000    -0.0643206  
C194     C      0.354190000000     0.085890000000     0.274430000000     0.0233917  
C195     C      0.333790000000     0.087010000000     0.278810000000    -0.0648348  
C196     C      0.326820000000     0.082820000000     0.297810000000     0.0236157  
C197     C      0.340080000000     0.077880000000     0.313020000000    -0.10032    
C198     C      0.360500000000     0.077590000000     0.309010000000     0.0227561  
C199     C      0.361370000000     0.088600000000     0.253700000000     0.0227308  
C200     C      0.379910000000     0.097280000000     0.249750000000    -0.063618   
C201     C      0.386800000000     0.099060000000     0.230260000000     0.0218455  
C202     C      0.375170000000     0.092520000000     0.214330000000    -0.097327   
C203     C      0.356570000000     0.084140000000     0.218190000000     0.0217579  
C204     C      0.349840000000     0.082020000000     0.237620000000    -0.0639927  
C205     C      0.477580000000     0.096280000000     0.108980000000    -0.0645193  
C206     C      0.493130000000     0.100640000000     0.122120000000     0.0227803  
C207     C      0.489070000000     0.101630000000     0.142550000000    -0.0640087  
C208     C      0.469760000000     0.098980000000     0.149600000000     0.0213914  
C209     C      0.454140000000     0.095320000000     0.136360000000    -0.0981722  
C210     C      0.458300000000     0.093690000000     0.116020000000     0.0216336  
C211     C      0.513260000000     0.105110000000     0.114390000000     0.0229786  
C212     C      0.530350000000     0.098260000000     0.124180000000    -0.0641868  
C213     C      0.549230000000     0.103120000000     0.117110000000     0.0217446  
C214     C      0.551340000000     0.114930000000     0.100140000000    -0.0984732  
C215     C      0.534280000000     0.121630000000     0.090280000000     0.0220842  
C216     C      0.515470000000     0.116800000000     0.097330000000    -0.0646067  
C217     C      0.737840000000     0.102290000000     0.102120000000    -0.0642842  
C218     C      0.721900000000     0.091970000000     0.110660000000     0.0228666  
C219     C      0.726010000000     0.074880000000     0.121890000000    -0.0639802  
C220     C      0.745540000000     0.068230000000     0.124350000000     0.0221402  
C221     C      0.761350000000     0.078680000000     0.115860000000    -0.0984526  
C222     C      0.757310000000     0.095820000000     0.104820000000     0.0219283  
C223     C      0.701150000000     0.098940000000     0.107460000000     0.0230536  
C224     C      0.696880000000     0.119340000000     0.106130000000    -0.0645713  
C225     C      0.677810000000     0.125940000000     0.101510000000     0.022854   
C226     C      0.662440000000     0.112330000000     0.098500000000    -0.0992641  
C227     C      0.666370000000     0.091990000000     0.100610000000     0.0220293  
C228     C      0.685570000000     0.085340000000     0.104900000000    -0.064149   
C229     C      0.102810000000     0.117950000000     0.502030000000    -0.063887   
C230     C      0.113640000000     0.100530000000     0.506100000000     0.0228398  
C231     C      0.122380000000     0.090130000000     0.490190000000    -0.0643882  
C232     C      0.120170000000     0.096800000000     0.470780000000     0.0222262  
C233     C      0.109460000000     0.114200000000     0.466770000000    -0.0986395  
C234     C      0.100840000000     0.124790000000     0.482560000000     0.0219858  
C235     C      0.116200000000     0.093260000000     0.526770000000     0.0232346  
C236     C      0.118660000000     0.106600000000     0.542660000000    -0.0643277  
C237     C      0.122420000000     0.099620000000     0.561800000000     0.0225435  
C238     C      0.124070000000     0.079190000000     0.565370000000    -0.10008    
C239     C      0.121090000000     0.065840000000     0.549680000000     0.0232475  
C240     C      0.117000000000     0.072780000000     0.530660000000    -0.0647488  
C241     C      0.224700000000     0.072770000000     0.379320000000    -0.063376   
C242     C      0.220200000000     0.092970000000     0.376540000000     0.0225256  
C243     C      0.235480000000     0.105900000000     0.370930000000    -0.0641999  
C244     C      0.254880000000     0.098930000000     0.368670000000     0.0211441  
C245     C      0.259450000000     0.078860000000     0.371870000000    -0.0962489  
C246     C      0.244150000000     0.065780000000     0.376990000000     0.0202303  
C247     C      0.199850000000     0.100730000000     0.380270000000     0.022683   
C248     C      0.183040000000     0.089950000000     0.374390000000    -0.0638634  
C249     C      0.163960000000     0.097050000000     0.378640000000     0.0211858  
C250     C      0.161330000000     0.115050000000     0.388880000000    -0.0971742  
C251     C      0.178100000000     0.125970000000     0.394460000000     0.0210672  
C252     C      0.197120000000     0.118900000000     0.390220000000    -0.0641175  
C253     C      0.111430000000     0.078920000000     0.751270000000    -0.0642583  
C254     C      0.100700000000     0.087240000000     0.735450000000     0.0228064  
C255     C      0.083160000000     0.097860000000     0.739710000000    -0.0638742  
C256     C      0.076530000000     0.100000000000     0.759270000000     0.0220723  
C257     C      0.087440000000     0.091790000000     0.774960000000    -0.0984228  
C258     C      0.104970000000     0.081310000000     0.770770000000     0.0220243  
C259     C      0.107730000000     0.084460000000     0.714680000000     0.023233   
C260     C      0.128160000000     0.083870000000     0.710420000000    -0.0647683  
C261     C      0.134890000000     0.079610000000     0.691320000000     0.0233092  
C262     C      0.121390000000     0.076250000000     0.675910000000    -0.0994481  
C263     C      0.100990000000     0.077670000000     0.679820000000     0.0223658  
C264     C      0.094210000000     0.081580000000     0.699060000000    -0.0642252  
C265     C      0.882190000000     0.084860000000     0.238200000000    -0.0646248  
C266     C      0.862860000000     0.091170000000     0.233470000000     0.0230876  
C267     C      0.850990000000     0.099590000000     0.248450000000    -0.0651057  
C268     C      0.858030000000     0.101110000000     0.267840000000     0.0222194  
C269     C      0.877100000000     0.094240000000     0.272690000000    -0.101228   
C270     C      0.889240000000     0.086380000000     0.257630000000     0.0219272  
C271     C      0.854700000000     0.087960000000     0.213270000000     0.022463   
C272     C      0.866360000000     0.091250000000     0.196310000000    -0.06398    
C273     C      0.858910000000     0.087080000000     0.177420000000     0.0213669  
C274     C      0.839700000000     0.079450000000     0.175140000000    -0.0974012  
C275     C      0.827900000000     0.076590000000     0.192040000000     0.0210518  
C276     C      0.835310000000     0.080800000000     0.210880000000    -0.0641103  
C277     C      0.988220000000     0.101600000000     0.346780000000    -0.0635015  
C278     C      0.992280000000     0.098570000000     0.366990000000     0.0222043  
C279     C      0.976760000000     0.092730000000     0.379580000000    -0.0639335  
C280     C      0.957520000000     0.090590000000     0.372290000000     0.0208953  
C281     C      0.953380000000     0.094170000000     0.352220000000    -0.0952027  
C282     C      0.968960000000     0.099400000000     0.339470000000     0.0209496  
C283     C      0.012380000000     0.102520000000     0.375090000000     0.0231691  
C284     C      0.029530000000     0.097120000000     0.364430000000    -0.0641292  
C285     C      0.048340000000     0.101980000000     0.371610000000     0.0214376  
C286     C      0.050370000000     0.112360000000     0.389580000000    -0.0975749  
C287     C      0.033270000000     0.117350000000     0.400440000000     0.0212707  
C288     C      0.014500000000     0.112500000000     0.393280000000    -0.0643933  
C289     C      0.332120000000     0.975400000000     0.131760000000    -0.0639792  
C290     C      0.352500000000     0.979370000000     0.130000000000     0.0232194  
C291     C      0.365540000000     0.963650000000     0.125540000000    -0.0646324  
C292     C      0.358460000000     0.944360000000     0.123340000000     0.0213551  
C293     C      0.338160000000     0.940330000000     0.125460000000    -0.0966676  
C294     C      0.325010000000     0.956050000000     0.129510000000     0.0205484  
C295     C      0.360330000000     0.999670000000     0.133410000000     0.0206655  
C296     C      0.350280000000     0.016470000000     0.126150000000    -0.0624481  
C297     C      0.357640000000     0.035520000000     0.129720000000     0.0205376  
C298     C      0.375160000000     0.038130000000     0.140650000000    -0.0965332  
C299     C      0.385250000000     0.021350000000     0.147770000000     0.0204685  
C300     C      0.377920000000     0.002360000000     0.144210000000    -0.062065   
C301     C      0.857640000000     0.170970000000     0.373420000000    -0.0646728  
C302     C      0.872000000000     0.185990000000     0.373190000000     0.0229682  
C303     C      0.890660000000     0.182070000000     0.364820000000    -0.0651077  
C304     C      0.894850000000     0.163530000000     0.356540000000     0.0228431  
C305     C      0.880600000000     0.148430000000     0.356850000000    -0.0983217  
C306     C      0.862000000000     0.152220000000     0.365520000000     0.0223383  
C307     C      0.867560000000     0.205910000000     0.381250000000     0.0229794  
C308     C      0.851620000000     0.217040000000     0.373770000000    -0.0649255  
C309     C      0.848600000000     0.236610000000     0.380050000000     0.0225414  
C310     C      0.861210000000     0.245170000000     0.394210000000    -0.0991655  
C311     C      0.876690000000     0.233750000000     0.402220000000     0.0221638  
C312     C      0.879970000000     0.214350000000     0.395630000000    -0.0651756  
C313     C      0.833040000000     0.364740000000     0.529410000000    -0.0646448  
C314     C      0.843130000000     0.346600000000     0.527080000000     0.0229136  
C315     C      0.848800000000     0.335990000000     0.544070000000    -0.0641839  
C316     C      0.844390000000     0.343360000000     0.563000000000     0.0216585  
C317     C      0.834160000000     0.361430000000     0.565240000000    -0.0984128  
C318     C      0.828600000000     0.372060000000     0.548270000000     0.0221467  
C319     C      0.847300000000     0.338730000000     0.506910000000     0.0229677  
C320     C      0.844210000000     0.318600000000     0.502420000000    -0.0642688  
C321     C      0.846890000000     0.311540000000     0.483080000000     0.0219025  
C322     C      0.852750000000     0.324470000000     0.467900000000    -0.0986576  
C323     C      0.856320000000     0.344450000000     0.472490000000     0.0222348  
C324     C      0.853630000000     0.351510000000     0.491780000000    -0.0647694  
C325     C      0.849980000000     0.363920000000     0.751580000000    -0.06428    
C326     C      0.860020000000     0.354790000000     0.735660000000     0.0228028  
C327     C      0.877100000000     0.343420000000     0.739720000000    -0.0638898  
C328     C      0.883940000000     0.341300000000     0.759180000000     0.0220361  
C329     C      0.873700000000     0.350280000000     0.774980000000    -0.0987129  
C330     C      0.856630000000     0.361550000000     0.770980000000     0.0219126  
C331     C      0.852730000000     0.357480000000     0.714990000000     0.0230024  
C332     C      0.832260000000     0.358980000000     0.711160000000    -0.0645997  
C333     C      0.825370000000     0.363070000000     0.692130000000     0.0229436  
C334     C      0.838710000000     0.365370000000     0.676350000000    -0.0992425  
C335     C      0.859100000000     0.363070000000     0.679860000000     0.021911   
C336     C      0.866060000000     0.359310000000     0.699020000000    -0.0640627  
C337     C      0.862380000000     0.474480000000     0.873910000000    -0.0650719  
C338     C      0.850450000000     0.459550000000     0.865680000000     0.0230117  
C339     C      0.831090000000     0.464410000000     0.859620000000    -0.064444   
C340     C      0.824050000000     0.483900000000     0.861190000000     0.0217611  
C341     C      0.836230000000     0.498900000000     0.868870000000    -0.100788   
C342     C      0.855350000000     0.493930000000     0.875480000000     0.0222158  
C343     C      0.858570000000     0.439270000000     0.862460000000     0.022501   
C344     C      0.877920000000     0.436700000000     0.855070000000    -0.0641312  
C345     C      0.885290000000     0.417760000000     0.850860000000     0.020998   
C346     C      0.873500000000     0.400950000000     0.853970000000    -0.0973432  
C347     C      0.854340000000     0.403420000000     0.861820000000     0.0214767  
C348     C      0.846920000000     0.422400000000     0.865980000000    -0.0640767  
C349     C      0.879920000000     0.596330000000     0.750460000000    -0.0637782  
C350     C      0.862250000000     0.585980000000     0.754360000000     0.0227158  
C351     C      0.851750000000     0.577820000000     0.738300000000    -0.0642544  
C352     C      0.858540000000     0.580150000000     0.718920000000     0.0219357  
C353     C      0.876180000000     0.590380000000     0.715080000000    -0.0983604  
C354     C      0.886880000000     0.598390000000     0.731010000000     0.0217526  
C355     C      0.854810000000     0.583340000000     0.775000000000     0.0230631  
C356     C      0.868000000000     0.580350000000     0.790890000000    -0.0641895  
C357     C      0.860820000000     0.576630000000     0.809990000000     0.021882   
C358     C      0.840340000000     0.575530000000     0.813520000000    -0.0998224  
C359     C      0.827170000000     0.578980000000     0.797830000000     0.0230532  
C360     C      0.834300000000     0.583040000000     0.778860000000    -0.0645981  
C361     C      0.849800000000     0.517800000000     0.624490000000    -0.063993   
C362     C      0.860630000000     0.500690000000     0.629600000000     0.0226023  
C363     C      0.879400000000     0.502910000000     0.638370000000    -0.0641888  
C364     C      0.887010000000     0.521730000000     0.642250000000     0.0210562  
C365     C      0.876050000000     0.538810000000     0.637470000000    -0.0973959  
C366     C      0.857450000000     0.536680000000     0.628370000000     0.021297   
C367     C      0.852310000000     0.480560000000     0.626360000000     0.0226707  
C368     C      0.832290000000     0.476550000000     0.630600000000    -0.0638621  
C369     C      0.824880000000     0.457270000000     0.628790000000     0.0208527  
C370     C      0.837350000000     0.441650000000     0.622720000000    -0.0982806  
C371     C      0.857200000000     0.445740000000     0.618020000000     0.0216015  
C372     C      0.864590000000     0.464970000000     0.619780000000    -0.0645114  
C373     C      0.859300000000     0.724050000000     0.626930000000    -0.0641269  
C374     C      0.864970000000     0.708370000000     0.614320000000     0.022552   
C375     C      0.868010000000     0.712340000000     0.594080000000    -0.0635648  
C376     C      0.865880000000     0.731610000000     0.586750000000     0.0208325  
C377     C      0.860720000000     0.747310000000     0.599500000000    -0.0962631  
C378     C      0.857250000000     0.743290000000     0.619620000000     0.0211988  
C379     C      0.868490000000     0.688170000000     0.622430000000     0.0227296  
C380     C      0.878150000000     0.685780000000     0.640720000000    -0.0642495  
C381     C      0.882280000000     0.666870000000     0.648060000000     0.0212059  
C382     C      0.876900000000     0.649900000000     0.637280000000    -0.0976023  
C383     C      0.866930000000     0.652200000000     0.619160000000     0.0212885  
C384     C      0.862760000000     0.671150000000     0.611810000000    -0.063896   
C385     C      0.683620000000     0.591250000000     0.874090000000    -0.0641828  
C386     C      0.700710000000     0.601440000000     0.880210000000     0.0229253  
C387     C      0.698490000000     0.619160000000     0.891030000000    -0.0644673  
C388     C      0.679670000000     0.626390000000     0.895860000000     0.0216637  
C389     C      0.662610000000     0.616080000000     0.890000000000    -0.0979635  
C390     C      0.664750000000     0.598520000000     0.878930000000     0.0216294  
C391     C      0.720830000000     0.593400000000     0.875910000000     0.0225268  
C392     C      0.724900000000     0.573030000000     0.877980000000    -0.0636718  
C393     C      0.744170000000     0.565720000000     0.875320000000     0.0210585  
C394     C      0.759740000000     0.578610000000     0.870550000000    -0.095593   
C395     C      0.755590000000     0.598860000000     0.867940000000     0.0211087  
C396     C      0.736350000000     0.606170000000     0.870580000000    -0.0640632  
C397     C      0.846590000000     0.119840000000     0.001430000000    -0.0637171  
C398     C      0.850130000000     0.099700000000     0.005600000000     0.0223527  
C399     C      0.855790000000     0.086970000000     0.990020000000    -0.0638451  
C400     C      0.857340000000     0.094070000000     0.970670000000     0.0212343  
C401     C      0.853380000000     0.114080000000     0.966460000000    -0.0961044  
C402     C      0.848240000000     0.126960000000     0.982050000000     0.0210034  
C403     C      0.847060000000     0.091780000000     0.025910000000     0.0229227  
C404     C      0.852740000000     0.102740000000     0.042720000000    -0.0641069  
C405     C      0.848850000000     0.095610000000     0.061780000000     0.0215551  
C406     C      0.839190000000     0.077390000000     0.064390000000    -0.0978643  
C407     C      0.833920000000     0.066250000000     0.047610000000     0.0214681  
C408     C      0.837770000000     0.073370000000     0.028610000000    -0.0643923  
C409     C      0.865870000000     0.227250000000     0.895070000000    -0.0639565  
C410     C      0.861480000000     0.231840000000     0.875230000000     0.0227281  
C411     C      0.854490000000     0.216720000000     0.862710000000    -0.064608   
C412     C      0.852480000000     0.197370000000     0.869690000000     0.0216999  
C413     C      0.857340000000     0.192690000000     0.889360000000    -0.0986082  
C414     C      0.863810000000     0.207860000000     0.902070000000     0.0210598  
C415     C      0.865020000000     0.252080000000     0.867330000000     0.0227566  
C416     C      0.860430000000     0.269040000000     0.878660000000    -0.0641857  
C417     C      0.864640000000     0.287990000000     0.871430000000     0.0216161  
C418     C      0.873550000000     0.290340000000     0.852760000000    -0.0979954  
C419     C      0.877800000000     0.273420000000     0.841300000000     0.0212768  
C420     C      0.873600000000     0.254520000000     0.848500000000    -0.0643274  
C421     C      0.945230000000     0.108090000000     0.893610000000    -0.064783   
C422     C      0.949460000000     0.107460000000     0.873190000000     0.0231253  
C423     C      0.933810000000     0.110320000000     0.859680000000    -0.0640954  
C424     C      0.914560000000     0.114260000000     0.866470000000     0.0219891  
C425     C      0.910670000000     0.115710000000     0.886860000000    -0.0993967  
C426     C      0.926110000000     0.112360000000     0.900340000000     0.0232491  
C427     C      0.970250000000     0.104670000000     0.866160000000     0.0227886  
C428     C      0.986060000000     0.113020000000     0.876840000000    -0.064502   
C429     C      0.005570000000     0.110630000000     0.870380000000     0.0219531  
C430     C      0.009780000000     0.100110000000     0.852890000000    -0.0975883  
C431     C      0.994100000000     0.091850000000     0.842050000000     0.0214892  
C432     C      0.974520000000     0.094000000000     0.848680000000    -0.0637171  
C433     C      0.514930000000     0.620720000000     0.893110000000    -0.0645066  
C434     C      0.512350000000     0.609770000000     0.875540000000     0.0228663  
C435     C      0.529250000000     0.602920000000     0.865310000000    -0.0641906  
C436     C      0.548270000000     0.607090000000     0.872410000000     0.0215459  
C437     C      0.550760000000     0.618230000000     0.889860000000    -0.0989333  
C438     C      0.533890000000     0.624890000000     0.900180000000     0.0216545  
C439     C      0.492080000000     0.605890000000     0.867880000000     0.0223045  
C440     C      0.476630000000     0.601090000000     0.880990000000    -0.063982   
C441     C      0.457320000000     0.598580000000     0.874060000000     0.0208869  
C442     C      0.452990000000     0.600740000000     0.853830000000    -0.0961005  
C443     C      0.468450000000     0.605080000000     0.840590000000     0.0201144  
C444     C      0.487820000000     0.607630000000     0.847550000000    -0.0633477  
C445     C      0.360490000000     0.825670000000     0.000650000000    -0.0642376  
C446     C      0.349120000000     0.842660000000     0.005200000000     0.0226148  
C447     C      0.340120000000     0.853120000000     0.989580000000    -0.0640937  
C448     C      0.342490000000     0.846890000000     0.970000000000     0.0219839  
C449     C      0.353670000000     0.829860000000     0.965510000000    -0.0988725  
C450     C      0.362640000000     0.819270000000     0.981000000000     0.0223576  
C451     C      0.346240000000     0.849350000000     0.026070000000     0.0231854  
C452     C      0.344000000000     0.835560000000     0.041530000000    -0.0643257  
C453     C      0.339890000000     0.841970000000     0.060860000000     0.0224206  
C454     C      0.337660000000     0.862260000000     0.065040000000    -0.0999985  
C455     C      0.340420000000     0.876060000000     0.049780000000     0.0232109  
C456     C      0.344840000000     0.869700000000     0.030580000000    -0.0648941  
C457     C      0.355270000000     0.716660000000     0.892760000000    -0.0640345  
C458     C      0.366210000000     0.712090000000     0.875530000000     0.0228309  
C459     C      0.375080000000     0.727690000000     0.864980000000    -0.0643679  
C460     C      0.372860000000     0.747290000000     0.871280000000     0.0220727  
C461     C      0.362010000000     0.751800000000     0.888480000000    -0.0990466  
C462     C      0.353290000000     0.736310000000     0.899230000000     0.0222188  
C463     C      0.368690000000     0.691210000000     0.868610000000     0.0231976  
C464     C      0.370940000000     0.675570000000     0.882210000000    -0.0643098  
C465     C      0.374560000000     0.656200000000     0.875550000000     0.0223535  
C466     C      0.376280000000     0.652170000000     0.855200000000    -0.0996108  
C467     C      0.373530000000     0.667620000000     0.841610000000     0.023282   
C468     C      0.369580000000     0.686860000000     0.848210000000    -0.0648031  
C469     C      0.380270000000     0.506630000000     0.860830000000    -0.0648672  
C470     C      0.359850000000     0.502410000000     0.860990000000     0.0232221  
C471     C      0.346320000000     0.518070000000     0.857900000000    -0.0642142  
C472     C      0.353080000000     0.537300000000     0.854190000000     0.0224146  
C473     C      0.373480000000     0.541170000000     0.853170000000    -0.100129   
C474     C      0.386990000000     0.525730000000     0.856770000000     0.0233243  
C475     C      0.352850000000     0.481630000000     0.863460000000     0.0227011  
C476     C      0.363800000000     0.465770000000     0.855280000000    -0.0641229  
C477     C      0.357300000000     0.446280000000     0.857270000000     0.021729   
C478     C      0.339510000000     0.442140000000     0.867190000000    -0.0980883  
C479     C      0.328430000000     0.457860000000     0.875310000000     0.0219139  
C480     C      0.335090000000     0.477410000000     0.873590000000    -0.0638645  
C481     C      0.098600000000     0.967020000000     0.871830000000    -0.0644919  
C482     C      0.110940000000     0.982030000000     0.864440000000     0.0220814  
C483     C      0.130640000000     0.977240000000     0.859390000000    -0.0637907  
C484     C      0.137660000000     0.957760000000     0.861200000000     0.0209157  
C485     C      0.125110000000     0.942720000000     0.868090000000    -0.0988675  
C486     C      0.105600000000     0.947600000000     0.873610000000     0.021712   
C487     C      0.102950000000     0.002330000000     0.861140000000     0.023156   
C488     C      0.083930000000     0.004930000000     0.853050000000    -0.0636698  
C489     C      0.076610000000     0.023880000000     0.849050000000     0.0211101  
C490     C      0.088130000000     0.040710000000     0.853040000000    -0.0976082  
C491     C      0.106990000000     0.038220000000     0.861500000000     0.0215648  
C492     C      0.114360000000     0.019210000000     0.865480000000    -0.0641688  
C493     C      0.278940000000     0.853590000000     0.873580000000    -0.0641428  
C494     C      0.262260000000     0.842630000000     0.879510000000     0.0228797  
C495     C      0.265220000000     0.824460000000     0.889260000000    -0.0643167  
C496     C      0.284330000000     0.817580000000     0.893290000000     0.0213762  
C497     C      0.300960000000     0.828720000000     0.887740000000    -0.0978296  
C498     C      0.298100000000     0.846700000000     0.877670000000     0.0215721  
C499     C      0.241830000000     0.850300000000     0.876170000000     0.0224082  
C500     C      0.237320000000     0.870490000000     0.879100000000    -0.0633255  
C501     C      0.217840000000     0.877430000000     0.877170000000     0.0204621  
C502     C      0.202470000000     0.864300000000     0.872340000000    -0.0954368  
C503     C      0.207020000000     0.844220000000     0.868990000000     0.0209816  
C504     C      0.226470000000     0.837310000000     0.870830000000    -0.0638767  
C505     C      0.366200000000     0.590990000000     0.699470000000    -0.064158   
C506     C      0.354840000000     0.585530000000     0.716060000000     0.0228619  
C507     C      0.336300000000     0.576580000000     0.712980000000    -0.0643153  
C508     C      0.329410000000     0.572920000000     0.693830000000     0.0213879  
C509     C      0.340910000000     0.578050000000     0.677280000000    -0.0981595  
C510     C      0.359300000000     0.587290000000     0.680270000000     0.0216687  
C511     C      0.362360000000     0.588680000000     0.736540000000     0.0223226  
C512     C      0.382360000000     0.584980000000     0.741230000000    -0.0632629  
C513     C      0.389120000000     0.586950000000     0.760740000000     0.0200622  
C514     C      0.376000000000     0.592610000000     0.775940000000    -0.0961373  
C515     C      0.356120000000     0.596660000000     0.771200000000     0.0209763  
C516     C      0.349390000000     0.594760000000     0.751740000000    -0.0639942  
C517     C      0.356900000000     0.608370000000     0.546990000000    -0.0642856  
C518     C      0.355510000000     0.596580000000     0.529830000000     0.0227145  
C519     C      0.349670000000     0.576690000000     0.531730000000    -0.0642124  
C520     C      0.344750000000     0.568940000000     0.550240000000     0.0211553  
C521     C      0.345620000000     0.580870000000     0.567310000000    -0.0978328  
C522     C      0.352060000000     0.600570000000     0.565560000000     0.0216269  
C523     C      0.358970000000     0.605140000000     0.509870000000     0.0225536  
C524     C      0.351040000000     0.623800000000     0.504920000000    -0.0638068  
C525     C      0.352390000000     0.630930000000     0.485540000000     0.0215879  
C526     C      0.361740000000     0.619570000000     0.470720000000    -0.0969572  
C527     C      0.370430000000     0.601330000000     0.475840000000     0.0208704  
C528     C      0.369040000000     0.594180000000     0.495200000000    -0.0642279  
C529     C      0.240620000000     0.565390000000     0.386410000000    -0.0646769  
C530     C      0.246950000000     0.583840000000     0.379220000000     0.0226205  
C531     C      0.233690000000     0.595560000000     0.368240000000    -0.0645281  
C532     C      0.214210000000     0.589290000000     0.365160000000     0.0219894  
C533     C      0.207750000000     0.571050000000     0.372750000000    -0.0987187  
C534     C      0.221240000000     0.558980000000     0.383050000000     0.021606   
C535     C      0.266890000000     0.591420000000     0.384240000000     0.0232179  
C536     C      0.273280000000     0.591450000000     0.404030000000    -0.0652397  
C537     C      0.291500000000     0.599740000000     0.409130000000     0.0227873  
C538     C      0.303840000000     0.607850000000     0.394510000000    -0.100212   
C539     C      0.297710000000     0.607370000000     0.374630000000     0.0230212  
C540     C      0.279280000000     0.599400000000     0.369560000000    -0.0650776  
C541     C      0.111140000000     0.587320000000     0.498820000000    -0.0640262  
C542     C      0.118320000000     0.599970000000     0.483940000000     0.0221991  
C543     C      0.122350000000     0.619850000000     0.488830000000    -0.0633085  
C544     C      0.119760000000     0.626740000000     0.508260000000     0.0202191  
C545     C      0.113150000000     0.613880000000     0.523180000000    -0.0964485  
C546     C      0.108650000000     0.594180000000     0.518200000000     0.0211758  
C547     C      0.122330000000     0.592120000000     0.463690000000     0.0231136  
C548     C      0.130880000000     0.573220000000     0.461240000000    -0.0649803  
C549     C      0.135050000000     0.565790000000     0.442370000000     0.02227    
C550     C      0.130840000000     0.577090000000     0.425440000000    -0.101003   
C551     C      0.122210000000     0.595960000000     0.427770000000     0.0218469  
C552     C      0.118000000000     0.603410000000     0.446720000000    -0.0644867  
C553     C      0.030580000000     0.608150000000     0.630430000000    -0.0641009  
C554     C      0.014980000000     0.605010000000     0.616940000000     0.0233608  
C555     C      0.019250000000     0.605400000000     0.596520000000    -0.0646938  
C556     C      0.038310000000     0.609720000000     0.589770000000     0.0231723  
C557     C      0.053690000000     0.613360000000     0.603240000000    -0.099553   
C558     C      0.049780000000     0.612140000000     0.623640000000     0.0220684  
C559     C      0.994210000000     0.602190000000     0.623980000000     0.022484   
C560     C      0.990080000000     0.591860000000     0.641610000000    -0.0640477  
C561     C      0.970520000000     0.589730000000     0.648260000000     0.0217697  
C562     C      0.954700000000     0.597660000000     0.637290000000    -0.0983613  
C563     C      0.958770000000     0.607810000000     0.619640000000     0.0216749  
C564     C      0.978260000000     0.610190000000     0.613160000000    -0.0640634  
C565     C      0.187850000000     0.584180000000     0.605230000000    -0.0642838  
C566     C      0.203440000000     0.597760000000     0.607900000000     0.023129   
C567     C      0.199070000000     0.618170000000     0.607270000000    -0.0647691  
C568     C      0.179880000000     0.624840000000     0.603230000000     0.0231364  
C569     C      0.164490000000     0.611280000000     0.600090000000    -0.100078   
C570     C      0.168540000000     0.590900000000     0.601500000000     0.0222641  
C571     C      0.224280000000     0.590800000000     0.610590000000     0.0226744  
C572     C      0.228660000000     0.573470000000     0.621360000000    -0.0638698  
C573     C      0.248300000000     0.567020000000     0.623600000000     0.021853   
C574     C      0.263950000000     0.577880000000     0.615320000000    -0.0987619  
C575     C      0.259620000000     0.595170000000     0.604620000000     0.0216729  
C576     C      0.240050000000     0.601450000000     0.602150000000    -0.0642198  
C577     C      0.683500000000     0.349620000000     0.614980000000    -0.0639341  
C578     C      0.700670000000     0.339800000000     0.608190000000     0.02277    
C579     C      0.698580000000     0.322300000000     0.597010000000    -0.0642195  
C580     C      0.679800000000     0.314910000000     0.592550000000     0.02127    
C581     C      0.662660000000     0.324840000000     0.599140000000    -0.0970749  
C582     C      0.664680000000     0.342200000000     0.610520000000     0.0213107  
C583     C      0.720720000000     0.347870000000     0.612320000000     0.0225075  
C584     C      0.724450000000     0.368330000000     0.610810000000    -0.0635312  
C585     C      0.743620000000     0.375700000000     0.613500000000     0.0206813  
C586     C      0.759430000000     0.362770000000     0.617750000000    -0.096369   
C587     C      0.755620000000     0.342410000000     0.619740000000     0.0211856  
C588     C      0.736500000000     0.335060000000     0.617080000000    -0.0640982  
C589     C      0.364620000000     0.351260000000     0.791820000000    -0.063911   
C590     C      0.353790000000     0.357210000000     0.775040000000     0.0227609  
C591     C      0.335570000000     0.367070000000     0.777810000000    -0.0643827  
C592     C      0.328450000000     0.371070000000     0.796830000000     0.0213705  
C593     C      0.339370000000     0.365360000000     0.813580000000    -0.0977338  
C594     C      0.357470000000     0.355280000000     0.810910000000     0.0212604  
C595     C      0.361490000000     0.353600000000     0.754670000000     0.0224483  
C596     C      0.381660000000     0.356440000000     0.750160000000    -0.0633827  
C597     C      0.388560000000     0.354220000000     0.730700000000     0.0202609  
C598     C      0.375430000000     0.349150000000     0.715390000000    -0.0962791  
C599     C      0.355390000000     0.345890000000     0.719970000000     0.0210955  
C600     C      0.348520000000     0.348040000000     0.739380000000    -0.0641112  
C601     C      0.529290000000     0.336430000000     0.626830000000    -0.0643573  
C602     C      0.512420000000     0.330520000000     0.616140000000     0.023025   
C603     C      0.515040000000     0.320500000000     0.598010000000    -0.0648313  
C604     C      0.534020000000     0.316380000000     0.590800000000     0.0219313  
C605     C      0.550860000000     0.322140000000     0.601540000000    -0.0997656  
C606     C      0.548340000000     0.332300000000     0.619580000000     0.0217395  
C607     C      0.492110000000     0.334460000000     0.623840000000     0.0222885  
C608     C      0.487570000000     0.331820000000     0.644020000000    -0.0634572  
C609     C      0.468150000000     0.334480000000     0.650930000000     0.0202936  
C610     C      0.452920000000     0.339820000000     0.637800000000    -0.0964072  
C611     C      0.457530000000     0.342870000000     0.617740000000     0.0210556  
C612     C      0.476880000000     0.340260000000     0.610850000000    -0.0640798  
C613     C      0.347630000000     0.424610000000     0.632530000000    -0.0643555  
C614     C      0.361360000000     0.440160000000     0.630680000000     0.0231761  
C615     C      0.381710000000     0.435710000000     0.632130000000    -0.0647433  
C616     C      0.388130000000     0.416460000000     0.636220000000     0.0231532  
C617     C      0.374390000000     0.401100000000     0.638590000000    -0.100048   
C618     C      0.354100000000     0.405240000000     0.636320000000     0.0223698  
C619     C      0.354590000000     0.461060000000     0.628110000000     0.0227312  
C620     C      0.337770000000     0.465710000000     0.616660000000    -0.0638881  
C621     C      0.331350000000     0.485390000000     0.614730000000     0.0219811  
C622     C      0.341740000000     0.500810000000     0.624030000000    -0.0984627  
C623     C      0.358580000000     0.496220000000     0.635340000000     0.0218225  
C624     C      0.364830000000     0.476600000000     0.637480000000    -0.0642658  
C625     C      0.374070000000     0.839920000000     0.240590000000    -0.0638104  
C626     C      0.357340000000     0.851600000000     0.236020000000     0.0226852  
C627     C      0.347120000000     0.861110000000     0.251590000000    -0.0641487  
C628     C      0.353320000000     0.858920000000     0.271160000000     0.0216166  
C629     C      0.370090000000     0.847410000000     0.275670000000    -0.0980241  
C630     C      0.380450000000     0.837930000000     0.260220000000     0.02169    
C631     C      0.350680000000     0.854330000000     0.215160000000     0.0231397  
C632     C      0.364490000000     0.856060000000     0.199590000000    -0.0642373  
C633     C      0.358140000000     0.860110000000     0.180280000000     0.0222497  
C634     C      0.337890000000     0.862790000000     0.176230000000    -0.0995858  
C635     C      0.324070000000     0.860500000000     0.191590000000     0.0231362  
C636     C      0.330360000000     0.856130000000     0.210770000000    -0.0647727  
C637     C      0.472520000000     0.826870000000     0.375060000000    -0.0642589  
C638     C      0.488050000000     0.835430000000     0.364130000000     0.0227284  
C639     C      0.483360000000     0.845940000000     0.346750000000    -0.0639961  
C640     C      0.463650000000     0.847850000000     0.340530000000     0.0219252  
C641     C      0.448230000000     0.839480000000     0.351680000000    -0.0987032  
C642     C      0.452870000000     0.829010000000     0.369000000000     0.0217485  
C643     C      0.508980000000     0.833110000000     0.370860000000     0.0231065  
C644     C      0.513470000000     0.832790000000     0.391210000000    -0.0647744  
C645     C      0.532760000000     0.829060000000     0.397680000000     0.0231318  
C646     C      0.548130000000     0.825930000000     0.383980000000    -0.0998085  
C647     C      0.543950000000     0.827070000000     0.363640000000     0.0221242  
C648     C      0.524540000000     0.830490000000     0.357130000000    -0.0642857  
C649     C      0.362380000000     0.755780000000     0.352510000000    -0.0641809  
C650     C      0.356780000000     0.754060000000     0.372510000000     0.022626   
C651     C      0.355620000000     0.771310000000     0.384220000000    -0.0641258  
C652     C      0.360430000000     0.789800000000     0.376230000000     0.0213693  
C653     C      0.366620000000     0.791360000000     0.356400000000    -0.0976212  
C654     C      0.367270000000     0.774210000000     0.344570000000     0.021099   
C655     C      0.353350000000     0.734170000000     0.381240000000     0.0225917  
C656     C      0.343120000000     0.719540000000     0.370520000000    -0.0643124  
C657     C      0.341850000000     0.700180000000     0.377720000000     0.0207763  
C658     C      0.350810000000     0.695030000000     0.395770000000    -0.0968915  
C659     C      0.360280000000     0.709830000000     0.406930000000     0.0214915  
C660     C      0.361520000000     0.729210000000     0.399740000000    -0.0638264  
C661     C      0.375900000000     0.937010000000     0.350350000000    -0.0645834  
C662     C      0.357180000000     0.940410000000     0.358940000000     0.0230851  
C663     C      0.345600000000     0.924000000000     0.364390000000    -0.0642828  
C664     C      0.352470000000     0.904670000000     0.361010000000     0.021866   
C665     C      0.371050000000     0.901360000000     0.352120000000    -0.0983714  
C666     C      0.382760000000     0.917730000000     0.347010000000     0.0215524  
C667     C      0.349700000000     0.961020000000     0.361720000000     0.0217364  
C668     C      0.362620000000     0.976110000000     0.367890000000    -0.0631556  
C669     C      0.355990000000     0.995700000000     0.369410000000     0.0188718  
C670     C      0.336270000000     0.000660000000     0.364890000000    -0.0941615  
C671     C      0.323180000000     0.985570000000     0.359140000000     0.0186474  
C672     C      0.329840000000     0.965930000000     0.357550000000    -0.0627346  
C673     C      0.845460000000     0.015980000000     0.355070000000    -0.0625532  
C674     C      0.858660000000     0.999890000000     0.357300000000     0.0209686  
C675     C      0.879160000000     0.003510000000     0.356160000000    -0.0623992  
C676     C      0.886250000000     0.022450000000     0.352010000000     0.0220126  
C677     C      0.873050000000     0.038350000000     0.349320000000    -0.0987003  
C678     C      0.852600000000     0.035050000000     0.351270000000     0.0209375  
C679     C      0.851200000000     0.979290000000     0.360010000000     0.0233958  
C680     C      0.833880000000     0.975460000000     0.371020000000    -0.0642739  
C681     C      0.826900000000     0.956050000000     0.373130000000     0.0219608  
C682     C      0.837230000000     0.940080000000     0.364500000000    -0.098517   
C683     C      0.854530000000     0.943860000000     0.353610000000     0.0220504  
C684     C      0.861330000000     0.963200000000     0.351240000000    -0.0646354  
C685     C      0.723100000000     0.867680000000     0.365420000000    -0.0639376  
C686     C      0.718780000000     0.849980000000     0.375540000000     0.0227399  
C687     C      0.734570000000     0.839070000000     0.383780000000    -0.064236   
C688     C      0.754090000000     0.845500000000     0.381770000000     0.0218707  
C689     C      0.758350000000     0.863180000000     0.371770000000    -0.0985816  
C690     C      0.742680000000     0.874270000000     0.363670000000     0.0219119  
C691     C      0.697980000000     0.842940000000     0.377890000000     0.0231464  
C692     C      0.682240000000     0.856440000000     0.380870000000    -0.0642377  
C693     C      0.663000000000     0.849630000000     0.384470000000     0.0221703  
C694     C      0.659180000000     0.829210000000     0.385470000000    -0.0997392  
C695     C      0.674710000000     0.815740000000     0.381950000000     0.0231947  
C696     C      0.693820000000     0.822510000000     0.378000000000    -0.0647459  
C697     C      0.850590000000     0.835520000000     0.444090000000    -0.0638433  
C698     C      0.846220000000     0.846680000000     0.461210000000     0.0225004  
C699     C      0.837490000000     0.865520000000     0.459060000000    -0.064046   
C700     C      0.832960000000     0.872920000000     0.440300000000     0.0208868  
C701     C      0.837040000000     0.861650000000     0.423230000000    -0.0973481  
C702     C      0.846070000000     0.842950000000     0.425280000000     0.021135   
C703     C      0.850220000000     0.838630000000     0.481310000000     0.0227397  
C704     C      0.845950000000     0.818750000000     0.485870000000    -0.0640151  
C705     C      0.848420000000     0.811640000000     0.505180000000     0.021018   
C706     C      0.855190000000     0.824260000000     0.520290000000    -0.098705   
C707     C      0.859950000000     0.843960000000     0.515620000000     0.0216025  
C708     C      0.857530000000     0.851050000000     0.496360000000    -0.0646204  
C709     C      0.602200000000     0.266450000000     0.115100000000    -0.0639848  
C710     C      0.594800000000     0.249550000000     0.124710000000     0.0227963  
C711     C      0.583590000000     0.252060000000     0.142140000000    -0.0642191  
C712     C      0.579670000000     0.271000000000     0.149640000000     0.0213497  
C713     C      0.586840000000     0.287870000000     0.139880000000    -0.0972118  
C714     C      0.598270000000     0.285420000000     0.122620000000     0.0215468  
C715     C      0.598350000000     0.229370000000     0.116470000000     0.0225403  
C716     C      0.596960000000     0.225780000000     0.095970000000    -0.0634914  
C717     C      0.599330000000     0.206580000000     0.088380000000     0.0206695  
C718     C      0.603110000000     0.190600000000     0.101140000000    -0.0960325  
C719     C      0.604860000000     0.194230000000     0.121570000000     0.0211354  
C720     C      0.602540000000     0.213390000000     0.129140000000    -0.0640721  
C721     C      0.601510000000     0.472630000000     0.121570000000    -0.0643194  
C722     C      0.614310000000     0.457130000000     0.127200000000     0.0225836  
C723     C      0.634650000000     0.461140000000     0.129400000000    -0.0636575  
C724     C      0.641890000000     0.480340000000     0.126600000000     0.0210669  
C725     C      0.628930000000     0.495890000000     0.121580000000    -0.0968913  
C726     C      0.608730000000     0.491780000000     0.118840000000     0.0218957  
C727     C      0.606260000000     0.437140000000     0.131590000000     0.0230027  
C728     C      0.588330000000     0.435270000000     0.142070000000    -0.064756   
C729     C      0.580870000000     0.416600000000     0.146740000000     0.0219626  
C730     C      0.591160000000     0.399340000000     0.141100000000    -0.0998231  
C731     C      0.608990000000     0.401110000000     0.130480000000     0.0218285  
C732     C      0.616490000000     0.419840000000     0.125780000000    -0.0644273  
C733     C      0.620220000000     0.589780000000     0.990070000000    -0.0638108  
C734     C      0.617190000000     0.602460000000     0.006420000000     0.022312   
C735     C      0.611320000000     0.622200000000     0.002880000000    -0.0638819  
C736     C      0.608690000000     0.629060000000     0.983490000000     0.021442   
C737     C      0.611690000000     0.616290000000     0.967270000000    -0.097739   
C738     C      0.617380000000     0.596570000000     0.970780000000     0.0213393  
C739     C      0.620520000000     0.595050000000     0.026940000000     0.0231303  
C740     C      0.615800000000     0.575370000000     0.031880000000    -0.0648159  
C741     C      0.620400000000     0.567800000000     0.050550000000     0.0229762  
C742     C      0.629530000000     0.579790000000     0.064870000000    -0.100266   
C743     C      0.633530000000     0.599680000000     0.060350000000     0.0218591  
C744     C      0.629180000000     0.607210000000     0.041530000000    -0.064369   
C745     C      0.739150000000     0.372510000000     0.384460000000    -0.0640822  
C746     C      0.743750000000     0.352640000000     0.379900000000     0.0227864  
C747     C      0.728820000000     0.340430000000     0.372130000000    -0.0648005  
C748     C      0.709610000000     0.347700000000     0.369530000000     0.0219484  
C749     C      0.704840000000     0.367370000000     0.374620000000    -0.0990218  
C750     C      0.719840000000     0.379800000000     0.381870000000     0.0209751  
C751     C      0.763760000000     0.344310000000     0.384020000000     0.0225833  
C752     C      0.781030000000     0.355010000000     0.379500000000    -0.0639027  
C753     C      0.799780000000     0.347030000000     0.383670000000     0.020718   
C754     C      0.801570000000     0.328290000000     0.392560000000    -0.0971067  
C755     C      0.784310000000     0.317620000000     0.397010000000     0.0215251  
C756     C      0.765640000000     0.325520000000     0.392780000000    -0.0643589  
C757     C      0.617740000000     0.369320000000     0.460110000000    -0.0643745  
C758     C      0.618590000000     0.348820000000     0.463960000000     0.023051   
C759     C      0.623170000000     0.335840000000     0.448190000000    -0.0640678  
C760     C      0.627190000000     0.343200000000     0.429250000000     0.0221109  
C761     C      0.627080000000     0.363700000000     0.425750000000    -0.0997201  
C762     C      0.622150000000     0.376670000000     0.441300000000     0.0228783  
C763     C      0.615480000000     0.341160000000     0.484450000000     0.0227321  
C764     C      0.621820000000     0.352260000000     0.500960000000    -0.0640103  
C765     C      0.619290000000     0.345070000000     0.520170000000     0.0217297  
C766     C      0.610720000000     0.326440000000     0.523380000000    -0.0976658  
C767     C      0.604420000000     0.315240000000     0.507020000000     0.021801   
C768     C      0.606610000000     0.322580000000     0.487760000000    -0.0637194  
C769     C      0.627810000000     0.369900000000     0.279660000000    -0.0644836  
C770     C      0.610680000000     0.358310000000     0.277480000000     0.0228977  
C771     C      0.600710000000     0.351860000000     0.294600000000    -0.064173   
C772     C      0.607730000000     0.356930000000     0.313450000000     0.0218126  
C773     C      0.624820000000     0.368570000000     0.315530000000    -0.0986742  
C774     C      0.634810000000     0.374940000000     0.298440000000     0.0221696  
C775     C      0.603140000000     0.353410000000     0.257370000000     0.0228007  
C776     C      0.582740000000     0.354280000000     0.253160000000    -0.064012   
C777     C      0.575870000000     0.351070000000     0.233870000000     0.02139    
C778     C      0.589270000000     0.346970000000     0.218410000000    -0.0986075  
C779     C      0.609580000000     0.345520000000     0.222720000000     0.0217858  
C780     C      0.616440000000     0.348660000000     0.241980000000    -0.064599   
C781     C      0.480080000000     0.593200000000     0.368920000000    -0.0645239  
C782     C      0.466890000000     0.605260000000     0.358220000000     0.0226585  
C783     C      0.473210000000     0.613670000000     0.340290000000    -0.0646995  
C784     C      0.492500000000     0.610440000000     0.333390000000     0.0218057  
C785     C      0.505930000000     0.599000000000     0.344470000000    -0.098943   
C786     C      0.499480000000     0.590220000000     0.362180000000     0.022043   
C787     C      0.447020000000     0.610030000000     0.366360000000     0.0233016  
C788     C      0.434560000000     0.595010000000     0.373500000000    -0.0652335  
C789     C      0.416130000000     0.599780000000     0.381850000000     0.0231017  
C790     C      0.410060000000     0.619680000000     0.383530000000    -0.10076    
C791     C      0.422500000000     0.634650000000     0.376300000000     0.0228849  
C792     C      0.440730000000     0.629870000000     0.367670000000    -0.0653263  
C793     C      0.581070000000     0.584290000000     0.234400000000    -0.0640447  
C794     C      0.601440000000     0.586490000000     0.230560000000     0.0226858  
C795     C      0.614010000000     0.592200000000     0.246140000000    -0.0644528  
C796     C      0.606510000000     0.595100000000     0.265240000000     0.0215805  
C797     C      0.586270000000     0.592330000000     0.269190000000    -0.0983213  
C798     C      0.573570000000     0.587150000000     0.253550000000     0.0215896  
C799     C      0.609750000000     0.581910000000     0.210660000000     0.0229939  
C800     C      0.627370000000     0.570820000000     0.208950000000    -0.0648449  
C801     C      0.635050000000     0.565930000000     0.190350000000     0.0226948  
C802     C      0.625350000000     0.572050000000     0.173000000000    -0.0986871  
C803     C      0.607830000000     0.583300000000     0.174620000000     0.0217316  
C804     C      0.600060000000     0.588130000000     0.193290000000    -0.064271   
C805     C      0.597950000000     0.467620000000     0.365310000000    -0.0640382  
C806     C      0.610810000000     0.483090000000     0.360070000000     0.0224682  
C807     C      0.631270000000     0.479100000000     0.358760000000    -0.0634676  
C808     C      0.638600000000     0.459940000000     0.362050000000     0.0204516  
C809     C      0.625620000000     0.444400000000     0.366740000000    -0.095993   
C810     C      0.605270000000     0.448510000000     0.368580000000     0.0210463  
C811     C      0.602750000000     0.503050000000     0.355210000000     0.0226322  
C812     C      0.585360000000     0.504850000000     0.343880000000    -0.0642179  
C813     C      0.577820000000     0.523490000000     0.338930000000     0.021341   
C814     C      0.587480000000     0.540810000000     0.345170000000    -0.0972018  
C815     C      0.604810000000     0.539110000000     0.356580000000     0.0208244  
C816     C      0.612390000000     0.520410000000     0.361530000000    -0.0637893  
C817     C      0.595090000000     0.672780000000     0.375440000000    -0.0640121  
C818     C      0.589780000000     0.689810000000     0.364640000000     0.0228425  
C819     C      0.580140000000     0.687450000000     0.346340000000    -0.0646255  
C820     C      0.575940000000     0.668590000000     0.338970000000     0.0216879  
C821     C      0.581220000000     0.651580000000     0.349730000000    -0.0986102  
C822     C      0.590870000000     0.653830000000     0.368040000000     0.0209373  
C823     C      0.594020000000     0.710040000000     0.372340000000     0.0223261  
C824     C      0.591000000000     0.714820000000     0.392440000000    -0.0633686  
C825     C      0.593780000000     0.734240000000     0.399260000000     0.0201     
C826     C      0.599610000000     0.749240000000     0.386110000000    -0.0962501  
C827     C      0.603120000000     0.744350000000     0.366170000000     0.0210782  
C828     C      0.600410000000     0.724990000000     0.359380000000    -0.0640784  
C829     C      0.846470000000     0.846020000000     0.238070000000    -0.0639558  
C830     C      0.859160000000     0.851740000000     0.253550000000     0.0223088  
C831     C      0.879310000000     0.855030000000     0.249270000000    -0.0632428  
C832     C      0.886470000000     0.853090000000     0.229880000000     0.0199533  
C833     C      0.873610000000     0.847860000000     0.214390000000    -0.0957945  
C834     C      0.853600000000     0.844140000000     0.218720000000     0.0208517  
C835     C      0.851170000000     0.855060000000     0.273850000000     0.0226965  
C836     C      0.832740000000     0.864560000000     0.276500000000    -0.0641866  
C837     C      0.825420000000     0.868430000000     0.295480000000     0.0210841  
C838     C      0.836360000000     0.862940000000     0.312300000000    -0.0973999  
C839     C      0.854630000000     0.853150000000     0.309740000000     0.0212807  
C840     C      0.861970000000     0.849260000000     0.290700000000    -0.0638643  
C841     C      0.862020000000     0.976140000000     0.137360000000    -0.063429   
C842     C      0.851490000000     0.960450000000     0.128560000000     0.0221278  
C843     C      0.834180000000     0.964900000000     0.117780000000    -0.0633237  
C844     C      0.827610000000     0.984530000000     0.115900000000     0.0207234  
C845     C      0.838340000000     0.000090000000     0.124530000000    -0.096735   
C846     C      0.855620000000     0.995700000000     0.135230000000     0.0198272  
C847     C      0.858540000000     0.939620000000     0.130950000000     0.0234606  
C848     C      0.878970000000     0.935350000000     0.131680000000    -0.0649784  
C849     C      0.885700000000     0.916150000000     0.135540000000     0.0234355  
C850     C      0.872190000000     0.900670000000     0.138340000000    -0.100372   
C851     C      0.851800000000     0.904620000000     0.136780000000     0.0226315  
C852     C      0.845030000000     0.923940000000     0.133270000000    -0.0645303  
C853     C      0.472740000000     0.840070000000     0.841420000000    -0.0643287  
C854     C      0.468680000000     0.845410000000     0.861190000000     0.0229211  
C855     C      0.484110000000     0.853050000000     0.872880000000    -0.0647562  
C856     C      0.503300000000     0.854590000000     0.865240000000     0.0216679  
C857     C      0.507490000000     0.848560000000     0.845730000000    -0.0998774  
C858     C      0.491960000000     0.841640000000     0.833770000000     0.0219739  
C859     C      0.448780000000     0.841840000000     0.869950000000     0.0225264  
C860     C      0.431400000000     0.845530000000     0.859040000000    -0.063988   
C861     C      0.412800000000     0.840850000000     0.866930000000     0.0212599  
C862     C      0.411240000000     0.832330000000     0.885840000000    -0.0973783  
C863     C      0.428550000000     0.829110000000     0.896920000000     0.0210117  
C864     C      0.447100000000     0.833800000000     0.889070000000    -0.0640552  
C865     C      0.601590000000     0.769260000000     0.871460000000    -0.0643354  
C866     C      0.592110000000     0.752170000000     0.864270000000     0.0228721  
C867     C      0.577690000000     0.754180000000     0.849390000000    -0.0646607  
C868     C      0.572850000000     0.772810000000     0.841850000000     0.0219084  
C869     C      0.582350000000     0.789880000000     0.848970000000    -0.0987749  
C870     C      0.596800000000     0.787950000000     0.863820000000     0.0215404  
C871     C      0.596970000000     0.732250000000     0.872280000000     0.0227431  
C872     C      0.598920000000     0.715930000000     0.859420000000    -0.0645616  
C873     C      0.602160000000     0.696930000000     0.866900000000     0.0216866  
C874     C      0.603500000000     0.693800000000     0.887420000000    -0.0982646  
C875     C      0.602110000000     0.710160000000     0.900300000000     0.0213488  
C876     C      0.598910000000     0.729230000000     0.892790000000    -0.0640306  
C877     C      0.727360000000     0.838330000000     0.599300000000    -0.0643621  
C878     C      0.743230000000     0.848590000000     0.608060000000     0.0228382  
C879     C      0.739060000000     0.865900000000     0.619070000000    -0.063958   
C880     C      0.719540000000     0.872750000000     0.621180000000     0.021978   
C881     C      0.703790000000     0.862300000000     0.612550000000    -0.0985782  
C882     C      0.707910000000     0.845000000000     0.601650000000     0.0220028  
C883     C      0.763950000000     0.841270000000     0.605370000000     0.0229619  
C884     C      0.767940000000     0.820790000000     0.604380000000    -0.0645273  
C885     C      0.787000000000     0.813820000000     0.600190000000     0.0228265  
C886     C      0.802640000000     0.827130000000     0.597280000000    -0.0990435  
C887     C      0.798980000000     0.847560000000     0.599090000000     0.0217819  
C888     C      0.779790000000     0.854580000000     0.602950000000    -0.063987   
C889     C      0.611970000000     0.838290000000     0.539110000000    -0.0640031  
C890     C      0.617640000000     0.849160000000     0.522290000000     0.0227603  
C891     C      0.627340000000     0.867380000000     0.524990000000    -0.0642882  
C892     C      0.631500000000     0.874440000000     0.543990000000     0.0211801  
C893     C      0.626110000000     0.863430000000     0.560770000000    -0.0975889  
C894     C      0.616140000000     0.845360000000     0.558160000000     0.0214404  
C895     C      0.613920000000     0.841430000000     0.501980000000     0.0224015  
C896     C      0.616950000000     0.821260000000     0.497430000000    -0.0634377  
C897     C      0.614440000000     0.814280000000     0.478040000000     0.0202087  
C898     C      0.608880000000     0.827330000000     0.462840000000    -0.0961878  
C899     C      0.605490000000     0.847390000000     0.467450000000     0.0209759  
C900     C      0.607950000000     0.854350000000     0.486790000000    -0.0640544  
C901     C      0.599550000000     0.845950000000     0.691800000000    -0.0640873  
C902     C      0.610320000000     0.850420000000     0.709060000000     0.0226969  
C903     C      0.629010000000     0.859370000000     0.707170000000    -0.064194   
C904     C      0.636530000000     0.864190000000     0.688530000000     0.0211524  
C905     C      0.625550000000     0.860190000000     0.671330000000    -0.097689   
C906     C      0.607100000000     0.850770000000     0.673110000000     0.0213789  
C907     C      0.601790000000     0.846720000000     0.729030000000     0.0226098  
C908     C      0.581770000000     0.851140000000     0.733030000000    -0.0638648  
C909     C      0.574190000000     0.849340000000     0.752230000000     0.0216522  
C910     C      0.586450000000     0.843090000000     0.767830000000    -0.0970087  
C911     C      0.606270000000     0.838030000000     0.763740000000     0.021096   
C912     C      0.613850000000     0.839810000000     0.744550000000    -0.064234   
C913     C      0.987090000000     0.841180000000     0.610230000000    -0.0647527  
C914     C      0.971440000000     0.836890000000     0.623290000000     0.0227535  
C915     C      0.975310000000     0.836190000000     0.643750000000    -0.0639219  
C916     C      0.994540000000     0.839110000000     0.650910000000     0.0209018  
C917     C      0.010250000000     0.842750000000     0.637750000000    -0.0977838  
C918     C      0.006280000000     0.844030000000     0.617380000000     0.0218286  
C919     C      0.951390000000     0.832280000000     0.615460000000     0.0228841  
C920     C      0.934180000000     0.839220000000     0.625090000000    -0.0641665  
C921     C      0.915380000000     0.834390000000     0.617810000000     0.0217338  
C922     C      0.913450000000     0.822520000000     0.600790000000    -0.0987388  
C923     C      0.930630000000     0.815680000000     0.591120000000     0.0220225  
C924     C      0.949370000000     0.820480000000     0.598380000000    -0.0645623  
C925     C      0.083130000000     0.844370000000     0.751730000000    -0.0635335  
C926     C      0.101580000000     0.853220000000     0.755710000000     0.0226279  
C927     C      0.113260000000     0.859500000000     0.739620000000    -0.0638927  
C928     C      0.106770000000     0.856920000000     0.720170000000     0.0216151  
C929     C      0.088270000000     0.848350000000     0.716280000000    -0.0973775  
C930     C      0.076480000000     0.842110000000     0.732220000000     0.0216794  
C931     C      0.108560000000     0.856340000000     0.776450000000     0.0232013  
C932     C      0.095110000000     0.861090000000     0.791760000000    -0.0641349  
C933     C      0.101900000000     0.865210000000     0.810920000000     0.0220833  
C934     C      0.122280000000     0.865000000000     0.815070000000    -0.0997256  
C935     C      0.135690000000     0.859840000000     0.799980000000     0.0232001  
C936     C      0.128910000000     0.855330000000     0.780980000000    -0.0646398  
C937     C      0.104910000000     0.715020000000     0.627760000000    -0.0639703  
C938     C      0.098820000000     0.730190000000     0.614860000000     0.0222196  
C939     C      0.095780000000     0.725580000000     0.594740000000    -0.0632915  
C940     C      0.098320000000     0.706130000000     0.587820000000     0.0201119  
C941     C      0.103940000000     0.690940000000     0.600880000000    -0.0962251  
C942     C      0.107410000000     0.695640000000     0.620870000000     0.0209382  
C943     C      0.094910000000     0.750510000000     0.622620000000     0.0230664  
C944     C      0.085150000000     0.753100000000     0.640870000000    -0.0647998  
C945     C      0.081000000000     0.772070000000     0.648130000000     0.0219084  
C946     C      0.086470000000     0.788930000000     0.637310000000    -0.0997297  
C947     C      0.096380000000     0.786440000000     0.619140000000     0.0216741  
C948     C      0.100540000000     0.767400000000     0.611840000000    -0.0644104  
C949     C      0.084810000000     0.936930000000     0.643880000000    -0.0643538  
C950     C      0.102680000000     0.939600000000     0.633490000000     0.0228496  
C951     C      0.113280000000     0.922760000000     0.627030000000    -0.0641007  
C952     C      0.106180000000     0.903690000000     0.630970000000     0.0214513  
C953     C      0.088390000000     0.901110000000     0.641490000000    -0.0975293  
C954     C      0.077750000000     0.917930000000     0.647810000000     0.0215222  
C955     C      0.110230000000     0.959920000000     0.629740000000     0.0222656  
C956     C      0.097070000000     0.975230000000     0.624420000000    -0.0639469  
C957     C      0.103850000000     0.994580000000     0.621980000000     0.0205042  
C958     C      0.123960000000     0.999120000000     0.624740000000    -0.0970526  
C959     C      0.137260000000     0.983790000000     0.629600000000     0.0203127  
C960     C      0.130460000000     0.964380000000     0.632080000000    -0.0634571  
C961     C      0.338040000000     0.090440000000     0.498870000000    -0.0642178  
C962     C      0.346470000000     0.101180000000     0.483160000000     0.0227726  
C963     C      0.356980000000     0.118640000000     0.487570000000    -0.0638459  
C964     C      0.358900000000     0.125180000000     0.507180000000     0.0219374  
C965     C      0.350590000000     0.114250000000     0.522770000000    -0.0982251  
C966     C      0.340220000000     0.096800000000     0.518420000000     0.0219646  
C967     C      0.343940000000     0.094230000000     0.462340000000     0.0232992  
C968     C      0.343500000000     0.073810000000     0.458000000000    -0.0648868  
C969     C      0.339430000000     0.067150000000     0.438850000000     0.0235435  
C970     C      0.336130000000     0.080710000000     0.423480000000    -0.0999763  
C971     C      0.337430000000     0.101090000000     0.427480000000     0.0226353  
C972     C      0.341150000000     0.107810000000     0.446760000000    -0.064352   
C973     C      0.352350000000     0.226850000000     0.597410000000    -0.0639346  
C974     C      0.362930000000     0.230860000000     0.614940000000     0.0228183  
C975     C      0.371000000000     0.214840000000     0.625590000000    -0.0642423  
C976     C      0.368470000000     0.195390000000     0.619030000000     0.0218268  
C977     C      0.358090000000     0.191440000000     0.601460000000    -0.0985028  
C978     C      0.350070000000     0.207330000000     0.590680000000     0.0220264  
C979     C      0.365990000000     0.251590000000     0.621990000000     0.0230865  
C980     C      0.369120000000     0.267160000000     0.608490000000    -0.0641262  
C981     C      0.373340000000     0.286310000000     0.615280000000     0.0222011  
C982     C      0.374810000000     0.290200000000     0.635670000000    -0.0994885  
C983     C      0.371190000000     0.274850000000     0.649160000000     0.0230775  
C984     C      0.366630000000     0.255840000000     0.642420000000    -0.0646767  
C985     C      0.235750000000     0.070910000000     0.608750000000    -0.0633674  
C986     C      0.240140000000     0.090970000000     0.612410000000     0.0223859  
C987     C      0.224810000000     0.103700000000     0.618760000000    -0.0640791  
C988     C      0.205490000000     0.096700000000     0.620890000000     0.0210932  
C989     C      0.201030000000     0.076780000000     0.616800000000    -0.0962512  
C990     C      0.216380000000     0.063880000000     0.610940000000     0.0202261  
C991     C      0.260380000000     0.098860000000     0.608830000000     0.022841   
C992     C      0.277350000000     0.087870000000     0.614070000000    -0.0640859  
C993     C      0.296320000000     0.095170000000     0.610000000000     0.0214429  
C994     C      0.298670000000     0.113560000000     0.600590000000    -0.0976553  
C995     C      0.281740000000     0.124650000000     0.595630000000     0.0213388  
C996     C      0.262830000000     0.117390000000     0.599680000000    -0.0643266  
C997     C      0.445710000000     0.114080000000     0.596490000000    -0.0642383  
C998     C      0.448230000000     0.104320000000     0.614700000000     0.0228029  
C999     C      0.431300000000     0.098710000000     0.625470000000    -0.0639692  
C1000    C      0.412300000000     0.103070000000     0.618340000000     0.0213814  
C1001    C      0.409880000000     0.113150000000     0.600320000000    -0.0976984  
C1002    C      0.426770000000     0.118420000000     0.589380000000     0.0212876  
C1003    C      0.468490000000     0.100670000000     0.622600000000     0.0225673  
C1004    C      0.483990000000     0.094940000000     0.609810000000    -0.0640745  
C1005    C      0.503320000000     0.092840000000     0.616920000000     0.0212879  
C1006    C      0.507590000000     0.096320000000     0.636980000000    -0.0960923  
C1007    C      0.492060000000     0.101530000000     0.649910000000     0.0208271  
C1008    C      0.472710000000     0.103710000000     0.642790000000    -0.0635022  
C1009    C      0.629410000000     0.975820000000     0.617370000000    -0.0637893  
C1010    C      0.611330000000     0.979620000000     0.627190000000     0.022082   
C1011    C      0.600460000000     0.963450000000     0.634500000000    -0.0641621  
C1012    C      0.607290000000     0.944070000000     0.631870000000     0.021793   
C1013    C      0.625320000000     0.940310000000     0.622130000000    -0.0989486  
C1014    C      0.636380000000     0.956360000000     0.614960000000     0.0216972  
C1015    C      0.603830000000     0.000250000000     0.630120000000     0.0233784  
C1016    C      0.616890000000     0.015970000000     0.634220000000    -0.0641216  
C1017    C      0.609580000000     0.035040000000     0.638220000000     0.0218198  
C1018    C      0.589080000000     0.038710000000     0.638460000000    -0.0996969  
C1019    C      0.576060000000     0.023200000000     0.633880000000     0.0227011  
C1020    C      0.583340000000     0.004270000000     0.629580000000    -0.0639498  
C1021    C      0.581120000000     0.184850000000     0.637800000000    -0.0645291  
C1022    C      0.593180000000     0.186920000000     0.620920000000     0.0228641  
C1023    C      0.600040000000     0.169720000000     0.611190000000    -0.0640126  
C1024    C      0.594970000000     0.150890000000     0.618230000000     0.0215449  
C1025    C      0.582920000000     0.148930000000     0.635110000000    -0.0985566  
C1026    C      0.576080000000     0.166100000000     0.644810000000     0.0221886  
C1027    C      0.598200000000     0.207010000000     0.613490000000     0.0226002  
C1028    C      0.597830000000     0.211240000000     0.593090000000    -0.0637969  
C1029    C      0.601060000000     0.230560000000     0.586330000000     0.0211067  
C1030    C      0.604700000000     0.246010000000     0.599830000000    -0.098075   
C1031    C      0.605720000000     0.241670000000     0.620140000000     0.021515   
C1032    C      0.602560000000     0.222400000000     0.626880000000    -0.0643476  
C1033    C      0.763920000000     0.114910000000     0.892450000000    -0.0647076  
C1034    C      0.761910000000     0.096980000000     0.881990000000     0.0230068  
C1035    C      0.779100000000     0.086580000000     0.876220000000    -0.0642435  
C1036    C      0.797900000000     0.093960000000     0.880860000000     0.0217854  
C1037    C      0.799820000000     0.111830000000     0.891430000000    -0.0989542  
C1038    C      0.782650000000     0.122240000000     0.897120000000     0.0222805  
C1039    C      0.741870000000     0.089120000000     0.877520000000     0.02284    
C1040    C      0.737620000000     0.068890000000     0.880060000000    -0.064082   
C1041    C      0.718390000000     0.061810000000     0.877100000000     0.0217196  
C1042    C      0.703070000000     0.074810000000     0.871520000000    -0.0980104  
C1043    C      0.707420000000     0.094910000000     0.868480000000     0.0218916  
C1044    C      0.726610000000     0.101980000000     0.871430000000    -0.0645126  
C1045    C      0.602110000000     0.932460000000     0.831040000000    -0.0646503  
C1046    C      0.607620000000     0.937000000000     0.850570000000     0.022674   
C1047    C      0.604930000000     0.922750000000     0.865450000000    -0.0644038  
C1048    C      0.596960000000     0.904190000000     0.860820000000     0.0218106  
C1049    C      0.591160000000     0.899790000000     0.841310000000    -0.097686   
C1050    C      0.593790000000     0.914100000000     0.826480000000     0.0217576  
C1051    C      0.615670000000     0.956810000000     0.855330000000     0.0231223  
C1052    C      0.631400000000     0.964600000000     0.844210000000    -0.0651782  
C1053    C      0.638120000000     0.983850000000     0.847780000000     0.0223214  
C1054    C      0.628960000000     0.995760000000     0.862270000000    -0.100168   
C1055    C      0.613450000000     0.987830000000     0.873640000000     0.022797   
C1056    C      0.606980000000     0.968450000000     0.870320000000    -0.0651237  
C1057    C      0.592900000000     0.083520000000     0.792610000000    -0.064041   
C1058    C      0.604850000000     0.082130000000     0.775550000000     0.0226929  
C1059    C      0.624800000000     0.076390000000     0.777630000000    -0.0646673  
C1060    C      0.632590000000     0.072020000000     0.796240000000     0.0221056  
C1061    C      0.620650000000     0.073250000000     0.813260000000    -0.0990937  
C1062    C      0.600740000000     0.079150000000     0.811320000000     0.0209443  
C1063    C      0.596660000000     0.086150000000     0.755510000000     0.0227838  
C1064    C      0.577900000000     0.079020000000     0.749960000000    -0.0641554  
C1065    C      0.571050000000     0.081380000000     0.730530000000     0.0211361  
C1066    C      0.582860000000     0.090880000000     0.716290000000    -0.0991726  
C1067    C      0.601300000000     0.098580000000     0.722010000000     0.0220598  
C1068    C      0.608100000000     0.096290000000     0.741390000000    -0.0647709  
C1069    C      0.609400000000     0.087220000000     0.996710000000    -0.0642585  
C1070    C      0.615600000000     0.100050000000     0.981570000000     0.0225942  
C1071    C      0.618690000000     0.120170000000     0.986120000000    -0.0636212  
C1072    C      0.616160000000     0.127160000000     0.005530000000     0.0206266  
C1073    C      0.610500000000     0.114160000000     0.020720000000    -0.0984436  
C1074    C      0.606900000000     0.094190000000     0.016050000000     0.021305   
C1075    C      0.619640000000     0.092170000000     0.961360000000     0.0226431  
C1076    C      0.629570000000     0.073940000000     0.958980000000    -0.0642615  
C1077    C      0.633750000000     0.066500000000     0.940110000000     0.0215848  
C1078    C      0.628110000000     0.077090000000     0.923140000000    -0.0972004  
C1079    C      0.618070000000     0.095270000000     0.925420000000     0.0208228  
C1080    C      0.613920000000     0.102770000000     0.944360000000    -0.0637953  
C1081    C      0.853980000000     0.602150000000     0.945200000000    -0.0646577  
C1082    C      0.840790000000     0.599410000000     0.961080000000     0.0231069  
C1083    C      0.823450000000     0.588400000000     0.958050000000    -0.065041   
C1084    C      0.819430000000     0.580090000000     0.939540000000     0.0226999  
C1085    C      0.832510000000     0.582900000000     0.923600000000    -0.0984856  
C1086    C      0.849760000000     0.594130000000     0.926520000000     0.0222043  
C1087    C      0.845160000000     0.607530000000     0.980980000000     0.0226947  
C1088    C      0.863400000000     0.603500000000     0.990170000000    -0.0643371  
C1089    C      0.866740000000     0.609510000000     0.009730000000     0.0219572  
C1090    C      0.852020000000     0.619920000000     0.020290000000    -0.0990634  
C1091    C      0.834100000000     0.624650000000     0.010810000000     0.0216598  
C1092    C      0.830640000000     0.618360000000     0.991380000000    -0.0646568  
C1093    C      0.872950000000     0.714440000000     0.123970000000    -0.0645781  
C1094    C      0.865870000000     0.730300000000     0.112420000000     0.0231653  
C1095    C      0.857050000000     0.726040000000     0.094000000000    -0.0640768  
C1096    C      0.855420000000     0.706430000000     0.087340000000     0.0223776  
C1097    C      0.862290000000     0.690710000000     0.099100000000    -0.0988696  
C1098    C      0.871000000000     0.694910000000     0.117480000000     0.0232662  
C1099    C      0.868050000000     0.751120000000     0.119580000000     0.0231464  
C1100    C      0.866840000000     0.755490000000     0.139960000000    -0.0646261  
C1101    C      0.870610000000     0.774590000000     0.146960000000     0.0234566  
C1102    C      0.875190000000     0.789890000000     0.133740000000    -0.0996237  
C1103    C      0.875500000000     0.785900000000     0.113320000000     0.0224226  
C1104    C      0.872130000000     0.766660000000     0.106310000000    -0.0641668  
C1105    C      0.784780000000     0.576110000000     0.103230000000    -0.0648836  
C1106    C      0.768810000000     0.588340000000     0.109030000000     0.023158   
C1107    C      0.772040000000     0.608820000000     0.111120000000    -0.0651438  
C1108    C      0.790610000000     0.616930000000     0.107170000000     0.0231462  
C1109    C      0.806410000000     0.604810000000     0.100930000000    -0.101623   
C1110    C      0.803410000000     0.584270000000     0.099210000000     0.0221067  
C1111    C      0.748610000000     0.580100000000     0.112150000000     0.0225721  
C1112    C      0.740970000000     0.565500000000     0.099360000000    -0.0640581  
C1113    C      0.721300000000     0.559210000000     0.101210000000     0.0212996  
C1114    C      0.708880000000     0.567490000000     0.115790000000    -0.0993024  
C1115    C      0.716690000000     0.581550000000     0.128990000000     0.0224036  
C1116    C      0.736330000000     0.587710000000     0.127260000000    -0.0644904  
C1117    C      0.380470000000     0.186190000000     0.138740000000    -0.0649089  
C1118    C      0.370960000000     0.188790000000     0.120410000000     0.0230318  
C1119    C      0.365320000000     0.171900000000     0.109530000000    -0.0643032  
C1120    C      0.369190000000     0.152850000000     0.116830000000     0.0216297  
C1121    C      0.378820000000     0.150360000000     0.135110000000    -0.099886   
C1122    C      0.384330000000     0.167230000000     0.146000000000     0.0221083  
C1123    C      0.367260000000     0.209110000000     0.112740000000     0.0222645  
C1124    C      0.361040000000     0.224280000000     0.125690000000    -0.0640829  
C1125    C      0.358840000000     0.243700000000     0.118950000000     0.0209715  
C1126    C      0.362740000000     0.248430000000     0.099070000000    -0.0959681  
C1127    C      0.368450000000     0.233230000000     0.085940000000     0.0199672  
C1128    C      0.370690000000     0.213740000000     0.092710000000    -0.0632606  
C1129    C      0.347190000000     0.320500000000     0.987820000000    -0.0629689  
C1130    C      0.350650000000     0.340580000000     0.983440000000     0.0222272  
C1131    C      0.356890000000     0.353280000000     0.998730000000    -0.06378    
C1132    C      0.359090000000     0.346240000000     0.018030000000     0.0206634  
C1133    C      0.355180000000     0.326310000000     0.022500000000    -0.0959396  
C1134    C      0.349450000000     0.313430000000     0.007170000000     0.0196616  
C1135    C      0.346950000000     0.348520000000     0.963240000000     0.0228825  
C1136    C      0.352350000000     0.337650000000     0.946220000000    -0.0640687  
C1137    C      0.348240000000     0.345060000000     0.927290000000     0.0213394  
C1138    C      0.338630000000     0.363450000000     0.925040000000    -0.0977679  
C1139    C      0.333470000000     0.374400000000     0.942030000000     0.0213144  
C1140    C      0.337560000000     0.367030000000     0.960890000000    -0.0643886  
C1141    C      0.448010000000     0.334430000000     0.097190000000    -0.0647239  
C1142    C      0.452100000000     0.333890000000     0.117630000000     0.0232885  
C1143    C      0.436460000000     0.329790000000     0.130830000000    -0.0641834  
C1144    C      0.417390000000     0.325860000000     0.123720000000     0.0224711  
C1145    C      0.413670000000     0.325610000000     0.103270000000    -0.0998336  
C1146    C      0.429090000000     0.330110000000     0.090100000000     0.0233847  
C1147    C      0.472740000000     0.336790000000     0.124990000000     0.0227695  
C1148    C      0.489000000000     0.329910000000     0.113770000000    -0.0640905  
C1149    C      0.508350000000     0.332280000000     0.120630000000     0.022008   
C1150    C      0.511950000000     0.341240000000     0.139050000000    -0.0980587  
C1151    C      0.495830000000     0.348080000000     0.150390000000     0.0219476  
C1152    C      0.476430000000     0.346030000000     0.143360000000    -0.0636757  
C1153    C      0.982610000000     0.345460000000     0.372520000000    -0.0644032  
C1154    C      0.968440000000     0.335870000000     0.360670000000     0.0223465  
C1155    C      0.973890000000     0.329720000000     0.341460000000    -0.0633878  
C1156    C      0.993270000000     0.332510000000     0.334560000000     0.0198192  
C1157    C      0.007550000000     0.341420000000     0.346770000000    -0.0961672  
C1158    C      0.001930000000     0.348130000000     0.365690000000     0.0215796  
C1159    C      0.948450000000     0.331430000000     0.368830000000     0.0228847  
C1160    C      0.946510000000     0.325000000000     0.388520000000    -0.0648064  
C1161    C      0.927940000000     0.320520000000     0.396360000000     0.0221916  
C1162    C      0.910800000000     0.322260000000     0.384710000000    -0.0992908  
C1163    C      0.912610000000     0.328710000000     0.365010000000     0.0210076  
C1164    C      0.931280000000     0.333240000000     0.357130000000    -0.0641762  
C1165    C      0.083820000000     0.434060000000     0.357840000000    -0.0644027  
C1166    C      0.104290000000     0.437970000000     0.356850000000     0.023151   
C1167    C      0.117290000000     0.422240000000     0.352030000000    -0.0640659  
C1168    C      0.109970000000     0.403290000000     0.347960000000     0.0224125  
C1169    C      0.089500000000     0.399740000000     0.348210000000    -0.0994597  
C1170    C      0.076510000000     0.415240000000     0.353340000000     0.0231502  
C1171    C      0.111910000000     0.458470000000     0.360160000000     0.0228525  
C1172    C      0.100590000000     0.475060000000     0.354320000000    -0.0639692  
C1173    C      0.107720000000     0.494260000000     0.357090000000     0.0219791  
C1174    C      0.126510000000     0.497390000000     0.365370000000    -0.0975275  
C1175    C      0.137930000000     0.480960000000     0.371150000000     0.022097   
C1176    C      0.130640000000     0.461710000000     0.368760000000    -0.063719   
C1177    C      0.092530000000     0.255470000000     0.346530000000    -0.06475    
C1178    C      0.092550000000     0.251710000000     0.367030000000     0.0231466  
C1179    C      0.089140000000     0.267650000000     0.380160000000    -0.0642529  
C1180    C      0.085300000000     0.286720000000     0.372930000000     0.0222315  
C1181    C      0.084510000000     0.290150000000     0.352440000000    -0.100103   
C1182    C      0.088370000000     0.274410000000     0.339330000000     0.0232357  
C1183    C      0.095370000000     0.231110000000     0.374510000000     0.0227923  
C1184    C      0.087520000000     0.214950000000     0.363920000000    -0.0643762  
C1185    C      0.090070000000     0.195600000000     0.370720000000     0.0219149  
C1186    C      0.100240000000     0.191890000000     0.388450000000    -0.0985444  
C1187    C      0.107940000000     0.207940000000     0.399230000000     0.0218486  
C1188    C      0.105630000000     0.227360000000     0.392280000000    -0.0639299  
C1189    C      0.084650000000     0.584750000000     0.252230000000    -0.0634425  
C1190    C      0.105130000000     0.585820000000     0.255990000000     0.0225213  
C1191    C      0.118020000000     0.590210000000     0.240230000000    -0.0640669  
C1192    C      0.110690000000     0.592950000000     0.221090000000     0.0211035  
C1193    C      0.090290000000     0.591420000000     0.217260000000    -0.096099   
C1194    C      0.077300000000     0.587530000000     0.233050000000     0.0206161  
C1195    C      0.113140000000     0.581650000000     0.276080000000     0.0227278  
C1196    C      0.103460000000     0.588750000000     0.293180000000    -0.0638534  
C1197    C      0.110840000000     0.584300000000     0.312030000000     0.0211509  
C1198    C      0.128010000000     0.572620000000     0.314140000000    -0.0965588  
C1199    C      0.137780000000     0.565680000000     0.297070000000     0.0211878  
C1200    C      0.130440000000     0.570140000000     0.278260000000    -0.0641314  
C1201    C      0.949770000000     0.616220000000     0.099100000000    -0.0642845  
C1202    C      0.951960000000     0.606070000000     0.117130000000     0.0225939  
C1203    C      0.934860000000     0.599880000000     0.127300000000    -0.0639275  
C1204    C      0.915990000000     0.603870000000     0.119610000000     0.0210559  
C1205    C      0.913890000000     0.614230000000     0.101690000000    -0.0965819  
C1206    C      0.930970000000     0.620270000000     0.091490000000     0.0218274  
C1207    C      0.972080000000     0.602340000000     0.125290000000     0.0227869  
C1208    C      0.987590000000     0.596370000000     0.112670000000    -0.0649782  
C1209    C      0.006840000000     0.594170000000     0.119910000000     0.0219529  
C1210    C      0.011050000000     0.597890000000     0.139950000000    -0.0983492  
C1211    C      0.995490000000     0.603350000000     0.152750000000     0.0205515  
C1212    C      0.976160000000     0.605530000000     0.145490000000    -0.0639988  
C1213    C      0.109060000000     0.853100000000     0.999520000000    -0.0640173  
C1214    C      0.113480000000     0.839860000000     0.983980000000     0.0224183  
C1215    C      0.114440000000     0.819430000000     0.988070000000    -0.0634025  
C1216    C      0.111680000000     0.812500000000     0.007390000000     0.0207813  
C1217    C      0.107940000000     0.825860000000     0.022990000000    -0.0978565  
C1218    C      0.106370000000     0.846190000000     0.018800000000     0.021194   
C1219    C      0.118000000000     0.847480000000     0.963830000000     0.0231126  
C1220    C      0.111180000000     0.837640000000     0.946750000000    -0.0642822  
C1221    C      0.115860000000     0.844800000000     0.927870000000     0.0219992  
C1222    C      0.127460000000     0.861900000000     0.925730000000    -0.0991777  
C1223    C      0.134210000000     0.871740000000     0.942770000000     0.0224804  
C1224    C      0.129570000000     0.864610000000     0.961580000000    -0.0647628  
C1225    C      0.096660000000     0.684580000000     0.144210000000    -0.0644687  
C1226    C      0.096420000000     0.688690000000     0.123760000000     0.0231445  
C1227    C      0.092600000000     0.673030000000     0.110460000000    -0.0641627  
C1228    C      0.088680000000     0.653940000000     0.117450000000     0.0222965  
C1229    C      0.088140000000     0.650180000000     0.137880000000    -0.0995411  
C1230    C      0.092330000000     0.665620000000     0.151180000000     0.0230242  
C1231    C      0.099350000000     0.709340000000     0.116480000000     0.0227807  
C1232    C      0.092290000000     0.725600000000     0.127620000000    -0.0640967  
C1233    C      0.094620000000     0.744940000000     0.120770000000     0.0218606  
C1234    C      0.103680000000     0.748540000000     0.102420000000    -0.0974904  
C1235    C      0.110710000000     0.732430000000     0.091170000000     0.0218337  
C1236    C      0.108730000000     0.713040000000     0.098200000000    -0.0636533  
C1237    C      0.183500000000     0.852500000000     0.113210000000    -0.0643398  
C1238    C      0.200470000000     0.841940000000     0.107020000000     0.0229684  
C1239    C      0.198020000000     0.823950000000     0.096740000000    -0.0647619  
C1240    C      0.179120000000     0.816730000000     0.092670000000     0.021862   
C1241    C      0.162170000000     0.827320000000     0.098720000000    -0.0995919  
C1242    C      0.164520000000     0.845240000000     0.109110000000     0.0215682  
C1243    C      0.220730000000     0.849600000000     0.110950000000     0.0222934  
C1244    C      0.225130000000     0.869840000000     0.108590000000    -0.0633851  
C1245    C      0.244530000000     0.876700000000     0.111100000000     0.0202016  
C1246    C      0.259880000000     0.863450000000     0.116000000000    -0.0963619  
C1247    C      0.255400000000     0.843340000000     0.118800000000     0.0210759  
C1248    C      0.236060000000     0.836510000000     0.116360000000    -0.0640901  
C1249    C      0.986640000000     0.833020000000     0.143780000000    -0.0633526  
C1250    C      0.991150000000     0.835280000000     0.123550000000     0.0220196  
C1251    C      0.975880000000     0.840620000000     0.110440000000    -0.0640231  
C1252    C      0.956490000000     0.843160000000     0.117260000000     0.0209776  
C1253    C      0.951890000000     0.840460000000     0.137370000000    -0.0963759  
C1254    C      0.967180000000     0.835580000000     0.150630000000     0.0200531  
C1255    C      0.011500000000     0.831400000000     0.115940000000     0.0231894  
C1256    C      0.028280000000     0.837960000000     0.126380000000    -0.0640812  
C1257    C      0.047370000000     0.833940000000     0.119210000000     0.0214086  
C1258    C      0.050030000000     0.823220000000     0.101500000000    -0.0973005  
C1259    C      0.033270000000     0.816780000000     0.091030000000     0.0215299  
C1260    C      0.014240000000     0.820820000000     0.098160000000    -0.0644892  
C1261    C      0.239720000000     0.367570000000     0.120560000000    -0.0634996  
C1262    C      0.243820000000     0.349300000000     0.111200000000     0.0225821  
C1263    C      0.227810000000     0.337880000000     0.104320000000    -0.0637793  
C1264    C      0.208310000000     0.344460000000     0.106780000000     0.0215167  
C1265    C      0.204320000000     0.362800000000     0.115820000000    -0.0970919  
C1266    C      0.220170000000     0.374320000000     0.122690000000     0.0216378  
C1267    C      0.264610000000     0.342290000000     0.108140000000     0.0233381  
C1268    C      0.279960000000     0.355780000000     0.104050000000    -0.0643015  
C1269    C      0.299190000000     0.349000000000     0.099990000000     0.0226911  
C1270    C      0.303380000000     0.328610000000     0.099570000000    -0.100142   
C1271    C      0.288250000000     0.315140000000     0.104050000000     0.0234507  
C1272    C      0.269170000000     0.321900000000     0.108510000000    -0.0646814  
C1273    C      0.115060000000     0.518160000000     0.125120000000    -0.0643263  
C1274    C      0.105080000000     0.501120000000     0.131690000000     0.0230611  
C1275    C      0.087880000000     0.503450000000     0.143270000000    -0.0647524  
C1276    C      0.080840000000     0.522310000000     0.148210000000     0.0223871  
C1277    C      0.090840000000     0.539310000000     0.141740000000    -0.0988633  
C1278    C      0.107990000000     0.537080000000     0.130090000000     0.0220174  
C1279    C      0.112690000000     0.480940000000     0.126950000000     0.0226586  
C1280    C      0.099460000000     0.465580000000     0.122260000000    -0.0644248  
C1281    C      0.106360000000     0.446250000000     0.119340000000     0.0216629  
C1282    C      0.126660000000     0.441840000000     0.120950000000    -0.0982205  
C1283    C      0.140010000000     0.457260000000     0.124970000000     0.0212379  
C1284    C      0.133090000000     0.476630000000     0.127960000000    -0.0639043  
C1285    C      0.097640000000     0.352690000000     0.194830000000    -0.0644313  
C1286    C      0.108550000000     0.357380000000     0.211950000000     0.0230315  
C1287    C      0.127360000000     0.366010000000     0.209800000000    -0.064919   
C1288    C      0.135030000000     0.369990000000     0.191030000000     0.0221489  
C1289    C      0.124090000000     0.365470000000     0.173940000000    -0.100241   
C1290    C      0.105360000000     0.356660000000     0.175990000000     0.021848   
C1291    C      0.100380000000     0.353670000000     0.232060000000     0.0224094  
C1292    C      0.080470000000     0.358080000000     0.236590000000    -0.0635922  
C1293    C      0.073270000000     0.355770000000     0.255920000000     0.0204347  
C1294    C      0.085850000000     0.349000000000     0.271050000000    -0.0969868  
C1295    C      0.105580000000     0.344120000000     0.266400000000     0.0215126  
C1296    C      0.112760000000     0.346390000000     0.247150000000    -0.0643018  
C1297    C      0.100980000000     0.173930000000     0.877510000000    -0.063993   
C1298    C      0.095670000000     0.190660000000     0.866250000000     0.0227864  
C1299    C      0.086410000000     0.187790000000     0.847820000000    -0.0642913  
C1300    C      0.082320000000     0.168730000000     0.840910000000     0.0212961  
C1301    C      0.087340000000     0.152050000000     0.852280000000    -0.0977214  
C1302    C      0.096870000000     0.154800000000     0.870580000000     0.0213181  
C1303    C      0.099270000000     0.211080000000     0.873760000000     0.0224212  
C1304    C      0.095740000000     0.215980000000     0.893750000000    -0.0634276  
C1305    C      0.097920000000     0.235520000000     0.900420000000     0.0201819  
C1306    C      0.103620000000     0.250530000000     0.887240000000    -0.0958817  
C1307    C      0.107580000000     0.245550000000     0.867390000000     0.0209203  
C1308    C      0.105480000000     0.226060000000     0.860750000000    -0.0639855  
C1309    C      0.115290000000     0.338670000000     0.040340000000    -0.0642487  
C1310    C      0.121760000000     0.349240000000     0.023620000000     0.0231302  
C1311    C      0.132210000000     0.367010000000     0.026450000000    -0.0645145  
C1312    C      0.136190000000     0.374010000000     0.045520000000     0.021532   
C1313    C      0.129840000000     0.363390000000     0.062210000000    -0.0976023  
C1314    C      0.119270000000     0.345700000000     0.059450000000     0.0217077  
C1315    C      0.117910000000     0.341770000000     0.003250000000     0.0216694  
C1316    C      0.120160000000     0.321530000000     0.998600000000    -0.0626041  
C1317    C      0.117490000000     0.314760000000     0.979170000000     0.0198871  
C1318    C      0.112510000000     0.328110000000     0.964010000000    -0.0960894  
C1319    C      0.109880000000     0.348260000000     0.968720000000     0.0207184  
C1320    C      0.112520000000     0.355000000000     0.988110000000    -0.0635516  
C1321    C      0.976070000000     0.329110000000     0.875390000000    -0.0641264  
C1322    C      0.991710000000     0.337740000000     0.864660000000     0.0223428  
C1323    C      0.987190000000     0.348390000000     0.847320000000    -0.0637799  
C1324    C      0.967540000000     0.350290000000     0.840880000000     0.0217932  
C1325    C      0.952030000000     0.341780000000     0.851780000000    -0.0983069  
C1326    C      0.956490000000     0.331240000000     0.869110000000     0.0217204  
C1327    C      0.012560000000     0.335260000000     0.871520000000     0.0235217  
C1328    C      0.016910000000     0.334760000000     0.891910000000    -0.0649333  
C1329    C      0.036120000000     0.330790000000     0.898480000000     0.0233118  
C1330    C      0.051550000000     0.327610000000     0.884850000000    -0.10034    
C1331    C      0.047520000000     0.328940000000     0.864500000000     0.0224859  
C1332    C      0.028190000000     0.332600000000     0.857890000000    -0.0643831  
C1333    C      0.185420000000     0.357780000000     0.881960000000    -0.0642435  
C1334    C      0.201050000000     0.344260000000     0.878550000000     0.0231388  
C1335    C      0.196800000000     0.323840000000     0.878350000000    -0.064704   
C1336    C      0.177710000000     0.317100000000     0.882430000000     0.0232466  
C1337    C      0.162300000000     0.330590000000     0.886380000000    -0.0996152  
C1338    C      0.166200000000     0.351000000000     0.885680000000     0.0223233  
C1339    C      0.221840000000     0.351240000000     0.876110000000     0.0228782  
C1340    C      0.226110000000     0.369110000000     0.866280000000    -0.0640294  
C1341    C      0.245680000000     0.375730000000     0.864570000000     0.022118   
C1342    C      0.261370000000     0.364490000000     0.872410000000    -0.0985006  
C1343    C      0.257170000000     0.346610000000     0.882060000000     0.0220281  
C1344    C      0.237660000000     0.340150000000     0.884040000000    -0.0643253  
H1       H      0.323110000000     0.090970000000     0.267530000000     0.0482817  
H2       H      0.311000000000     0.083370000000     0.300580000000     0.0389401  
H3       H      0.371030000000     0.073720000000     0.320490000000     0.0388656  
H4       H      0.383250000000     0.080120000000     0.287090000000     0.0483023  
H5       H      0.389090000000     0.102810000000     0.261670000000     0.0482438  
H6       H      0.401170000000     0.105670000000     0.227670000000     0.040802   
H7       H      0.347370000000     0.078780000000     0.206190000000     0.0397517  
H8       H      0.335740000000     0.074810000000     0.239970000000     0.0480719  
H9       H      0.500670000000     0.105140000000     0.153040000000     0.0485988  
H10      H      0.466980000000     0.100320000000     0.165360000000     0.041764   
H11      H      0.446580000000     0.090740000000     0.105470000000     0.0403983  
H12      H      0.480260000000     0.095050000000     0.093200000000     0.0483609  
H13      H      0.529150000000     0.089080000000     0.137260000000     0.0486393  
H14      H      0.562140000000     0.097720000000     0.124990000000     0.0413484  
H15      H      0.535430000000     0.130830000000     0.077200000000     0.0405827  
H16      H      0.502640000000     0.122610000000     0.089620000000     0.0483884  
H17      H      0.714170000000     0.066690000000     0.128910000000     0.0483272  
H18      H      0.748270000000     0.054990000000     0.133000000000     0.0406149  
H19      H      0.769190000000     0.104080000000     0.097930000000     0.0399963  
H20      H      0.735310000000     0.115220000000     0.092980000000     0.0480531  
H21      H      0.708310000000     0.130300000000     0.108530000000     0.0482036  
H22      H      0.675120000000     0.141730000000     0.100220000000     0.0395376  
H23      H      0.654760000000     0.081190000000     0.098290000000     0.039569   
H24      H      0.688280000000     0.069530000000     0.105570000000     0.0482999  
H25      H      0.131250000000     0.076960000000     0.492700000000     0.048175   
H26      H      0.127150000000     0.088430000000     0.458920000000     0.0399697  
H27      H      0.092430000000     0.138230000000     0.479850000000     0.0405035  
H28      H      0.095670000000     0.126230000000     0.513840000000     0.048297   
H29      H      0.118360000000     0.122460000000     0.540240000000     0.0483069  
H30      H      0.124730000000     0.110230000000     0.573650000000     0.0393955  
H31      H      0.122040000000     0.049990000000     0.552070000000     0.0394094  
H32      H      0.114640000000     0.062020000000     0.518970000000     0.0483372  
H33      H      0.232480000000     0.121460000000     0.368340000000     0.0482029  
H34      H      0.266330000000     0.109350000000     0.364550000000     0.0412466  
H35      H      0.247240000000     0.050230000000     0.379550000000     0.0415778  
H36      H      0.213320000000     0.062450000000     0.383850000000     0.0484316  
H37      H      0.184620000000     0.076030000000     0.366490000000     0.0486096  
H38      H      0.151300000000     0.088320000000     0.374150000000     0.0418055  
H39      H      0.176560000000     0.139850000000     0.402450000000     0.0406046  
H40      H      0.209720000000     0.127450000000     0.395230000000     0.0481432  
H41      H      0.074630000000     0.104690000000     0.727970000000     0.048317   
H42      H      0.062980000000     0.108220000000     0.762120000000     0.0406647  
H43      H      0.113590000000     0.074650000000     0.782560000000     0.0398839  
H44      H      0.124710000000     0.070220000000     0.748620000000     0.0481144  
H45      H      0.139030000000     0.086550000000     0.721890000000     0.0483141  
H46      H      0.150720000000     0.078850000000     0.688640000000     0.0395194  
H47      H      0.090270000000     0.075060000000     0.668180000000     0.0394587  
H48      H      0.078390000000     0.081700000000     0.701760000000     0.0483574  
H49      H      0.836150000000     0.104870000000     0.245230000000     0.0483097  
H50      H      0.848380000000     0.107360000000     0.279110000000     0.0398778  
H51      H      0.904010000000     0.080960000000     0.260940000000     0.0407041  
H52      H      0.891630000000     0.078120000000     0.227050000000     0.0487045  
H53      H      0.881280000000     0.096960000000     0.197660000000     0.0485412  
H54      H      0.868340000000     0.089450000000     0.164650000000     0.0416708  
H55      H      0.813050000000     0.070670000000     0.190760000000     0.0405263  
H56      H      0.826020000000     0.077850000000     0.223630000000     0.0481744  
H57      H      0.979440000000     0.089970000000     0.395150000000     0.0480026  
H58      H      0.945830000000     0.086400000000     0.382450000000     0.0407136  
H59      H      0.966210000000     0.102270000000     0.323940000000     0.0423293  
H60      H      0.999770000000     0.106320000000     0.336720000000     0.0484608  
H61      H      0.028410000000     0.089210000000     0.350490000000     0.0487058  
H62      H      0.061270000000     0.097910000000     0.362940000000     0.0417532  
H63      H      0.034350000000     0.125390000000     0.414310000000     0.0405714  
H64      H      0.001630000000     0.117140000000     0.401740000000     0.0483033  
H65      H      0.381270000000     0.966230000000     0.123740000000     0.0482896  
H66      H      0.368950000000     0.932580000000     0.120060000000     0.0411305  
H67      H      0.309280000000     0.953370000000     0.131230000000     0.0413967  
H68      H      0.321710000000     0.987140000000     0.135380000000     0.0483725  
H69      H      0.336800000000     0.014890000000     0.117610000000     0.048426   
H70      H      0.349550000000     0.048190000000     0.124060000000     0.0417788  
H71      H      0.398730000000     0.022870000000     0.156330000000     0.0411406  
H72      H      0.385870000000     0.989780000000     0.150280000000     0.0473268  
H73      H      0.901900000000     0.193490000000     0.364370000000     0.0491952  
H74      H      0.909330000000     0.160980000000     0.350010000000     0.038987   
H75      H      0.850750000000     0.140820000000     0.365890000000     0.0397459  
H76      H      0.843150000000     0.173720000000     0.379830000000     0.0495605  
H77      H      0.841950000000     0.210830000000     0.362580000000     0.0494909  
H78      H      0.836520000000     0.245090000000     0.373690000000     0.0394858  
H79      H      0.886660000000     0.240010000000     0.413110000000     0.0395297  
H80      H      0.892330000000     0.205990000000     0.401600000000     0.0493172  
H81      H      0.856740000000     0.322050000000     0.542750000000     0.0487421  
H82      H      0.848860000000     0.334850000000     0.575830000000     0.041233   
H83      H      0.820640000000     0.386000000000     0.549520000000     0.0407109  
H84      H      0.828200000000     0.373130000000     0.516630000000     0.0484266  
H85      H      0.839160000000     0.308430000000     0.513710000000     0.0486933  
H86      H      0.844040000000     0.296050000000     0.479970000000     0.0413555  
H87      H      0.860960000000     0.354750000000     0.461120000000     0.0406388  
H88      H      0.856420000000     0.367020000000     0.494830000000     0.0485244  
H89      H      0.885100000000     0.335970000000     0.727900000000     0.0482044  
H90      H      0.897110000000     0.332460000000     0.761870000000     0.0403305  
H91      H      0.848540000000     0.368820000000     0.782850000000     0.0398121  
H92      H      0.837090000000     0.373210000000     0.749090000000     0.0480114  
H93      H      0.821490000000     0.357120000000     0.722910000000     0.048215   
H94      H      0.809540000000     0.364540000000     0.689780000000     0.0394265  
H95      H      0.869710000000     0.364840000000     0.667940000000     0.039465   
H96      H      0.881910000000     0.358470000000     0.701380000000     0.0481891  
H97      H      0.821600000000     0.453290000000     0.853030000000     0.048594   
H98      H      0.809240000000     0.487300000000     0.855980000000     0.0407465  
H99      H      0.865040000000     0.505150000000     0.881590000000     0.0401026  
H100     H      0.877250000000     0.471170000000     0.878990000000     0.0483561  
H101     H      0.887200000000     0.449370000000     0.851940000000     0.0481542  
H102     H      0.900100000000     0.416350000000     0.844780000000     0.0404936  
H103     H      0.844910000000     0.390720000000     0.864370000000     0.0416815  
H104     H      0.832040000000     0.423880000000     0.871860000000     0.0486082  
H105     H      0.838390000000     0.569310000000     0.740660000000     0.0480324  
H106     H      0.850080000000     0.573610000000     0.706950000000     0.0399241  
H107     H      0.900510000000     0.606410000000     0.728440000000     0.0403767  
H108     H      0.888290000000     0.603020000000     0.762390000000     0.0482055  
H109     H      0.883870000000     0.580250000000     0.788500000000     0.048127   
H110     H      0.871300000000     0.573950000000     0.821840000000     0.0388646  
H111     H      0.811290000000     0.578460000000     0.800190000000     0.0397276  
H112     H      0.823650000000     0.585820000000     0.767190000000     0.0482441  
H113     H      0.888020000000     0.490070000000     0.642750000000     0.0481691  
H114     H      0.901350000000     0.522880000000     0.649360000000     0.040459   
H115     H      0.848660000000     0.549590000000     0.624530000000     0.0417103  
H116     H      0.835410000000     0.516610000000     0.617520000000     0.0485766  
H117     H      0.822480000000     0.488180000000     0.635880000000     0.0484661  
H118     H      0.809510000000     0.454550000000     0.632520000000     0.0409325  
H119     H      0.867150000000     0.434040000000     0.613150000000     0.0408646  
H120     H      0.879980000000     0.467600000000     0.616070000000     0.0482435  
H121     H      0.872600000000     0.700660000000     0.584000000000     0.0484391  
H122     H      0.868660000000     0.734270000000     0.571170000000     0.0416377  
H123     H      0.853100000000     0.755060000000     0.629790000000     0.0409346  
H124     H      0.856510000000     0.721470000000     0.642510000000     0.0481711  
H125     H      0.883030000000     0.698530000000     0.649160000000     0.0482022  
H126     H      0.890070000000     0.665590000000     0.662030000000     0.0404658  
H127     H      0.862580000000     0.639380000000     0.610530000000     0.0416628  
H128     H      0.855080000000     0.672470000000     0.597790000000     0.0485159  
H129     H      0.711330000000     0.627220000000     0.896230000000     0.0482672  
H130     H      0.678500000000     0.639940000000     0.904470000000     0.0404189  
H131     H      0.651860000000     0.590270000000     0.874180000000     0.0417403  
H132     H      0.684830000000     0.577670000000     0.865560000000     0.0486785  
H133     H      0.713340000000     0.562820000000     0.882270000000     0.0485394  
H134     H      0.746930000000     0.550030000000     0.877440000000     0.0421561  
H135     H      0.767270000000     0.609150000000     0.864150000000     0.0408626  
H136     H      0.733660000000     0.621880000000     0.868560000000     0.0482281  
H137     H      0.858950000000     0.071460000000     0.992760000000     0.0481544  
H138     H      0.861510000000     0.083810000000     0.958990000000     0.0410524  
H139     H      0.845090000000     0.142460000000     0.979230000000     0.041735   
H140     H      0.841990000000     0.130000000000     0.013030000000     0.0484692  
H141     H      0.860150000000     0.116860000000     0.041160000000     0.0485495  
H142     H      0.853100000000     0.104510000000     0.074450000000     0.0415444  
H143     H      0.826380000000     0.052190000000     0.049130000000     0.0405883  
H144     H      0.832930000000     0.064660000000     0.016020000000     0.0482126  
H145     H      0.850660000000     0.219810000000     0.847450000000     0.0482567  
H146     H      0.847320000000     0.186020000000     0.859570000000     0.0406572  
H147     H      0.867670000000     0.204670000000     0.917310000000     0.041119   
H148     H      0.871480000000     0.238500000000     0.905050000000     0.0484858  
H149     H      0.853610000000     0.267680000000     0.893120000000     0.0486045  
H150     H      0.861190000000     0.300770000000     0.880590000000     0.0415474  
H151     H      0.884740000000     0.274740000000     0.826880000000     0.0404489  
H152     H      0.877590000000     0.241790000000     0.839490000000     0.0481802  
H153     H      0.936500000000     0.110170000000     0.843860000000     0.0482121  
H154     H      0.902900000000     0.116840000000     0.855760000000     0.0392245  
H155     H      0.923450000000     0.113150000000     0.916170000000     0.0396435  
H156     H      0.956720000000     0.105430000000     0.904470000000     0.0483091  
H157     H      0.983400000000     0.121760000000     0.890070000000     0.0480889  
H158     H      0.017360000000     0.117340000000     0.878940000000     0.0399823  
H159     H      0.996960000000     0.083600000000     0.828540000000     0.0407948  
H160     H      0.962780000000     0.087140000000     0.840190000000     0.0482416  
H161     H      0.527770000000     0.594270000000     0.851850000000     0.0486347  
H162     H      0.561010000000     0.601770000000     0.864140000000     0.0414012  
H163     H      0.535320000000     0.633600000000     0.913620000000     0.040285   
H164     H      0.502260000000     0.626480000000     0.901210000000     0.0482481  
H165     H      0.479460000000     0.599310000000     0.896680000000     0.048188   
H166     H      0.445750000000     0.595100000000     0.884610000000     0.041308   
H167     H      0.465540000000     0.606830000000     0.824910000000     0.0415735  
H168     H      0.499340000000     0.611500000000     0.837080000000     0.0483259  
H169     H      0.330860000000     0.865980000000     0.992460000000     0.0480582  
H170     H      0.335230000000     0.855250000000     0.958380000000     0.039981   
H171     H      0.371410000000     0.806110000000     0.977930000000     0.0406492  
H172     H      0.367850000000     0.817370000000     0.012230000000     0.0482951  
H173     H      0.344760000000     0.819780000000     0.038620000000     0.0482964  
H174     H      0.337770000000     0.831020000000     0.072370000000     0.0394896  
H175     H      0.339020000000     0.891820000000     0.052650000000     0.0393518  
H176     H      0.346990000000     0.880790000000     0.019230000000     0.0481962  
H177     H      0.384030000000     0.724790000000     0.851950000000     0.0480852  
H178     H      0.379910000000     0.758910000000     0.862800000000     0.0396634  
H179     H      0.344770000000     0.739410000000     0.912510000000     0.0405401  
H180     H      0.348030000000     0.705100000000     0.901140000000     0.0482991  
H181     H      0.370570000000     0.678330000000     0.898010000000     0.0483065  
H182     H      0.376710000000     0.644540000000     0.886350000000     0.0394283  
H183     H      0.374550000000     0.664870000000     0.825810000000     0.0394637  
H184     H      0.367380000000     0.698360000000     0.837270000000     0.0482784  
H185     H      0.330500000000     0.515410000000     0.857690000000     0.0482339  
H186     H      0.342350000000     0.548960000000     0.851390000000     0.0392277  
H187     H      0.402810000000     0.528360000000     0.856300000000     0.0392198  
H188     H      0.391140000000     0.495140000000     0.863670000000     0.0483064  
H189     H      0.377270000000     0.468380000000     0.846960000000     0.048025   
H190     H      0.366060000000     0.434470000000     0.850680000000     0.0399301  
H191     H      0.314680000000     0.455060000000     0.883110000000     0.0406934  
H192     H      0.326390000000     0.489170000000     0.880310000000     0.0482842  
H193     H      0.140470000000     0.988410000000     0.853460000000     0.0482276  
H194     H      0.152780000000     0.954430000000     0.856840000000     0.040961   
H195     H      0.095610000000     0.936350000000     0.879120000000     0.0407273  
H196     H      0.083460000000     0.970270000000     0.876160000000     0.0481591  
H197     H      0.074860000000     0.992270000000     0.849260000000     0.0477265  
H198     H      0.062040000000     0.025310000000     0.842460000000     0.0407901  
H199     H      0.116210000000     0.050940000000     0.864730000000     0.0414956  
H200     H      0.128980000000     0.017710000000     0.871920000000     0.0487958  
H201     H      0.252740000000     0.815770000000     0.894300000000     0.0482086  
H202     H      0.286050000000     0.803700000000     0.901160000000     0.040549   
H203     H      0.310650000000     0.855590000000     0.873180000000     0.0415159  
H204     H      0.277190000000     0.867510000000     0.865820000000     0.0485608  
H205     H      0.248730000000     0.880860000000     0.883450000000     0.0483919  
H206     H      0.214760000000     0.892980000000     0.879850000000     0.0419247  
H207     H      0.195510000000     0.833780000000     0.865090000000     0.0410494  
H208     H      0.229470000000     0.821740000000     0.868130000000     0.0480434  
H209     H      0.327280000000     0.571910000000     0.725400000000     0.0481035  
H210     H      0.315230000000     0.565680000000     0.692020000000     0.0403396  
H211     H      0.368480000000     0.591420000000     0.667780000000     0.0414741  
H212     H      0.380420000000     0.598140000000     0.701310000000     0.0485672  
H213     H      0.392710000000     0.580060000000     0.729930000000     0.0482808  
H214     H      0.404520000000     0.583730000000     0.763960000000     0.0414426  
H215     H      0.345670000000     0.601200000000     0.782570000000     0.041279   
H216     H      0.333980000000     0.598060000000     0.748610000000     0.0480625  
H217     H      0.348200000000     0.567270000000     0.518790000000     0.0483134  
H218     H      0.339820000000     0.553700000000     0.551110000000     0.04025    
H219     H      0.352900000000     0.610120000000     0.578470000000     0.0415461  
H220     H      0.361540000000     0.623690000000     0.546040000000     0.0484689  
H221     H      0.343030000000     0.632540000000     0.515830000000     0.0485355  
H222     H      0.345550000000     0.645050000000     0.482030000000     0.0416669  
H223     H      0.377830000000     0.592270000000     0.464760000000     0.0403109  
H224     H      0.375560000000     0.579880000000     0.498610000000     0.0480193  
H225     H      0.238180000000     0.609900000000     0.362660000000     0.0489514  
H226     H      0.204130000000     0.598860000000     0.357120000000     0.0397064  
H227     H      0.216650000000     0.544850000000     0.389070000000     0.0407214  
H228     H      0.250620000000     0.556050000000     0.394820000000     0.0488957  
H229     H      0.263920000000     0.585560000000     0.415640000000     0.0489287  
H230     H      0.295880000000     0.599870000000     0.424570000000     0.038892   
H231     H      0.306940000000     0.613580000000     0.363080000000     0.0398544  
H232     H      0.274680000000     0.599480000000     0.354180000000     0.049037   
H233     H      0.128060000000     0.629940000000     0.477770000000     0.0481766  
H234     H      0.123340000000     0.642010000000     0.511680000000     0.0411976  
H235     H      0.103350000000     0.583950000000     0.529330000000     0.0412697  
H236     H      0.107520000000     0.572040000000     0.495510000000     0.0482065  
H237     H      0.134750000000     0.564250000000     0.473960000000     0.0482437  
H238     H      0.141820000000     0.551240000000     0.441080000000     0.0402085  
H239     H      0.118810000000     0.605000000000     0.414970000000     0.0404796  
H240     H      0.111240000000     0.617950000000     0.448080000000     0.0486108  
H241     H      0.007830000000     0.602510000000     0.585650000000     0.0483213  
H242     H      0.040970000000     0.610330000000     0.573940000000     0.0394855  
H243     H      0.061380000000     0.614950000000     0.634340000000     0.0391995  
H244     H      0.027890000000     0.608190000000     0.646250000000     0.0482293  
H245     H      0.001910000000     0.585270000000     0.650220000000     0.0484387  
H246     H      0.967770000000     0.581780000000     0.661900000000     0.0404178  
H247     H      0.946900000000     0.614270000000     0.610970000000     0.039928   
H248     H      0.980780000000     0.618670000000     0.599800000000     0.0479044  
H249     H      0.210500000000     0.629100000000     0.609780000000     0.0482458  
H250     H      0.177130000000     0.640660000000     0.602450000000     0.0395481  
H251     H      0.156930000000     0.580120000000     0.599060000000     0.0391905  
H252     H      0.190630000000     0.568360000000     0.605400000000     0.0481984  
H253     H      0.216960000000     0.564990000000     0.628270000000     0.0482007  
H254     H      0.251230000000     0.553660000000     0.631990000000     0.0404435  
H255     H      0.271370000000     0.603750000000     0.597900000000     0.0397258  
H256     H      0.237320000000     0.614570000000     0.593340000000     0.0479502  
H257     H      0.711460000000     0.314510000000     0.591300000000     0.0483235  
H258     H      0.678730000000     0.301540000000     0.583680000000     0.0405269  
H259     H      0.651730000000     0.350170000000     0.615810000000     0.0418704  
H260     H      0.684610000000     0.363010000000     0.623800000000     0.0486155  
H261     H      0.712670000000     0.378580000000     0.606980000000     0.04848    
H262     H      0.746130000000     0.391460000000     0.611870000000     0.0416479  
H263     H      0.767480000000     0.332080000000     0.623130000000     0.041034   
H264     H      0.734080000000     0.319280000000     0.618680000000     0.0482616  
H265     H      0.326990000000     0.372150000000     0.765250000000     0.0482279  
H266     H      0.314500000000     0.378950000000     0.798390000000     0.0406828  
H267     H      0.366210000000     0.350710000000     0.823560000000     0.0414375  
H268     H      0.378600000000     0.343440000000     0.790200000000     0.0485205  
H269     H      0.392010000000     0.360930000000     0.761560000000     0.0483385  
H270     H      0.404090000000     0.356820000000     0.727600000000     0.0414201  
H271     H      0.344940000000     0.341800000000     0.708510000000     0.0412565  
H272     H      0.332980000000     0.345390000000     0.742380000000     0.0481579  
H273     H      0.502400000000     0.315450000000     0.589550000000     0.0483289  
H274     H      0.535480000000     0.308430000000     0.576890000000     0.0402569  
H275     H      0.561060000000     0.336920000000     0.628180000000     0.0410299  
H276     H      0.527780000000     0.344350000000     0.640740000000     0.0486399  
H277     H      0.498910000000     0.327170000000     0.654370000000     0.0483356  
H278     H      0.465030000000     0.332030000000     0.666480000000     0.0414325  
H279     H      0.446130000000     0.347150000000     0.607280000000     0.0412361  
H280     H      0.479920000000     0.342770000000     0.595300000000     0.0481979  
H281     H      0.392770000000     0.447150000000     0.630280000000     0.0482099  
H282     H      0.403890000000     0.413640000000     0.637670000000     0.0394926  
H283     H      0.343200000000     0.393640000000     0.638130000000     0.0394953  
H284     H      0.331850000000     0.427460000000     0.631710000000     0.0483225  
H285     H      0.329640000000     0.454180000000     0.609030000000     0.048226   
H286     H      0.318340000000     0.488540000000     0.605860000000     0.0406332  
H287     H      0.366790000000     0.507780000000     0.642850000000     0.0401454  
H288     H      0.377540000000     0.473640000000     0.646810000000     0.0480686  
H289     H      0.334480000000     0.870620000000     0.248680000000     0.0480269  
H290     H      0.345150000000     0.866560000000     0.282740000000     0.0402514  
H291     H      0.393400000000     0.828920000000     0.263310000000     0.0407139  
H292     H      0.382180000000     0.832180000000     0.229040000000     0.0482049  
H293     H      0.380250000000     0.854970000000     0.202400000000     0.0482944  
H294     H      0.369110000000     0.861860000000     0.168690000000     0.0395985  
H295     H      0.308340000000     0.862240000000     0.188820000000     0.039411   
H296     H      0.319240000000     0.854370000000     0.222210000000     0.0482261  
H297     H      0.494860000000     0.852940000000     0.338070000000     0.0482176  
H298     H      0.460460000000     0.856070000000     0.327130000000     0.0405036  
H299     H      0.441300000000     0.822230000000     0.377800000000     0.0396331  
H300     H      0.475510000000     0.818230000000     0.388230000000     0.0479531  
H301     H      0.502050000000     0.835290000000     0.402240000000     0.0482372  
H302     H      0.535620000000     0.828480000000     0.413470000000     0.0395538  
H303     H      0.555540000000     0.824620000000     0.352770000000     0.0392358  
H304     H      0.521660000000     0.830430000000     0.341360000000     0.0481953  
H305     H      0.351180000000     0.770490000000     0.399630000000     0.0483911  
H306     H      0.359770000000     0.802780000000     0.385700000000     0.0415317  
H307     H      0.372000000000     0.774930000000     0.329240000000     0.0402933  
H308     H      0.363690000000     0.742760000000     0.343150000000     0.0483003  
H309     H      0.336420000000     0.722960000000     0.356360000000     0.0480642  
H310     H      0.334350000000     0.689120000000     0.368830000000     0.040389   
H311     H      0.367330000000     0.706290000000     0.420900000000     0.0416915  
H312     H      0.369640000000     0.740090000000     0.408290000000     0.0485373  
H313     H      0.331210000000     0.926100000000     0.371260000000     0.0485323  
H314     H      0.343120000000     0.892320000000     0.365110000000     0.0413543  
H315     H      0.397100000000     0.915670000000     0.340030000000     0.0403498  
H316     H      0.385100000000     0.949270000000     0.345710000000     0.0481338  
H317     H      0.377910000000     0.972810000000     0.371550000000     0.047732   
H318     H      0.366390000000     0.006980000000     0.374050000000     0.0422688  
H319     H      0.307890000000     0.988970000000     0.355570000000     0.0415346  
H320     H      0.319560000000     0.954710000000     0.352550000000     0.0481305  
H321     H      0.889830000000     0.991680000000     0.358350000000     0.0473195  
H322     H      0.902110000000     0.024630000000     0.350840000000     0.0400714  
H323     H      0.842110000000     0.047080000000     0.349200000000     0.0391188  
H324     H      0.829580000000     0.013790000000     0.355630000000     0.0479362  
H325     H      0.825810000000     0.987400000000     0.378190000000     0.0482077  
H326     H      0.813540000000     0.953530000000     0.381660000000     0.0402502  
H327     H      0.862690000000     0.931860000000     0.346600000000     0.0398804  
H328     H      0.874400000000     0.965500000000     0.342220000000     0.0480314  
H329     H      0.731890000000     0.825660000000     0.392120000000     0.0480467  
H330     H      0.765840000000     0.836730000000     0.388350000000     0.0398223  
H331     H      0.745580000000     0.887940000000     0.355810000000     0.0403879  
H332     H      0.711400000000     0.876360000000     0.358670000000     0.048211   
H333     H      0.684850000000     0.872260000000     0.381100000000     0.04818    
H334     H      0.651280000000     0.860330000000     0.387230000000     0.0391364  
H335     H      0.672120000000     0.799900000000     0.382400000000     0.0393578  
H336     H      0.705370000000     0.811650000000     0.375220000000     0.0482691  
H337     H      0.833660000000     0.874400000000     0.471930000000     0.048088   
H338     H      0.825930000000     0.887350000000     0.439220000000     0.0405078  
H339     H      0.849390000000     0.833940000000     0.412370000000     0.0416738  
H340     H      0.857510000000     0.821040000000     0.445230000000     0.0484827  
H341     H      0.840120000000     0.808850000000     0.474670000000     0.0485043  
H342     H      0.844620000000     0.796390000000     0.508350000000     0.0409313  
H343     H      0.865340000000     0.854010000000     0.526920000000     0.0406863  
H344     H      0.861270000000     0.866330000000     0.493290000000     0.04827    
H345     H      0.577430000000     0.239390000000     0.149760000000     0.0482855  
H346     H      0.570740000000     0.272410000000     0.162930000000     0.0404634  
H347     H      0.604010000000     0.298160000000     0.114790000000     0.0419532  
H348     H      0.611080000000     0.265010000000     0.101780000000     0.0486188  
H349     H      0.593540000000     0.237720000000     0.085820000000     0.0484541  
H350     H      0.597880000000     0.204220000000     0.072570000000     0.0418377  
H351     H      0.607900000000     0.182230000000     0.131770000000     0.041037   
H352     H      0.604010000000     0.215680000000     0.144960000000     0.0482495  
H353     H      0.644880000000     0.449580000000     0.133900000000     0.0483615  
H354     H      0.657540000000     0.483090000000     0.128810000000     0.0409588  
H355     H      0.598400000000     0.503430000000     0.114810000000     0.0413438  
H356     H      0.585840000000     0.469990000000     0.119390000000     0.0483081  
H357     H      0.580240000000     0.448270000000     0.147060000000     0.048366   
H358     H      0.567140000000     0.415730000000     0.155030000000     0.0402322  
H359     H      0.617240000000     0.388040000000     0.125930000000     0.0411054  
H360     H      0.630230000000     0.420770000000     0.117530000000     0.0486521  
H361     H      0.608610000000     0.632330000000     0.015070000000     0.0482355  
H362     H      0.604240000000     0.644340000000     0.981200000000     0.0410227  
H363     H      0.619980000000     0.586410000000     0.958570000000     0.0403152  
H364     H      0.625180000000     0.574630000000     0.992110000000     0.0480295  
H365     H      0.608670000000     0.565690000000     0.021270000000     0.0482962  
H366     H      0.616940000000     0.552460000000     0.053700000000     0.0402349  
H367     H      0.640620000000     0.609230000000     0.071120000000     0.0383698  
H368     H      0.633220000000     0.622360000000     0.038240000000     0.0481126  
H369     H      0.731970000000     0.325160000000     0.368170000000     0.0485874  
H370     H      0.698410000000     0.337780000000     0.363770000000     0.0410509  
H371     H      0.716590000000     0.395030000000     0.385910000000     0.0406372  
H372     H      0.750300000000     0.382250000000     0.390600000000     0.0484162  
H373     H      0.780050000000     0.369460000000     0.372620000000     0.0485471  
H374     H      0.812830000000     0.355610000000     0.380110000000     0.0408524  
H375     H      0.785190000000     0.303180000000     0.403940000000     0.0413226  
H376     H      0.752640000000     0.317030000000     0.396720000000     0.0483922  
H377     H      0.624270000000     0.320000000000     0.450540000000     0.0481127  
H378     H      0.631050000000     0.332870000000     0.417520000000     0.039118   
H379     H      0.621760000000     0.392550000000     0.438940000000     0.0391438  
H380     H      0.613760000000     0.379800000000     0.471660000000     0.0480673  
H381     H      0.629150000000     0.366370000000     0.499120000000     0.0479711  
H382     H      0.624460000000     0.353960000000     0.532500000000     0.0396043  
H383     H      0.597660000000     0.300850000000     0.509100000000     0.0405092  
H384     H      0.601240000000     0.313720000000     0.475520000000     0.0482221  
H385     H      0.587580000000     0.342760000000     0.293440000000     0.0485954  
H386     H      0.599750000000     0.351790000000     0.326370000000     0.0411816  
H387     H      0.647980000000     0.384010000000     0.299560000000     0.0406279  
H388     H      0.635660000000     0.375430000000     0.266810000000     0.0483092  
H389     H      0.572120000000     0.358070000000     0.264630000000     0.0484862  
H390     H      0.560120000000     0.352300000000     0.230970000000     0.0415426  
H391     H      0.620260000000     0.342240000000     0.211140000000     0.0402978  
H392     H      0.632200000000     0.347510000000     0.244780000000     0.0484252  
H393     H      0.463270000000     0.622920000000     0.331710000000     0.048857   
H394     H      0.497080000000     0.617380000000     0.319690000000     0.0407397  
H395     H      0.509510000000     0.581300000000     0.370990000000     0.0397359  
H396     H      0.475610000000     0.586670000000     0.382870000000     0.048883   
H397     H      0.439070000000     0.579600000000     0.372590000000     0.04908    
H398     H      0.406820000000     0.587960000000     0.387330000000     0.0397059  
H399     H      0.418180000000     0.650110000000     0.377370000000     0.0390313  
H400     H      0.450140000000     0.641740000000     0.362460000000     0.0489197  
H401     H      0.629720000000     0.594300000000     0.243600000000     0.048435   
H402     H      0.616650000000     0.599210000000     0.276960000000     0.0403399  
H403     H      0.557890000000     0.584930000000     0.256160000000     0.0416404  
H404     H      0.571040000000     0.579730000000     0.222750000000     0.0486184  
H405     H      0.635030000000     0.565550000000     0.222010000000     0.0485992  
H406     H      0.648560000000     0.557210000000     0.189600000000     0.0411648  
H407     H      0.600050000000     0.588220000000     0.161490000000     0.0402617  
H408     H      0.586530000000     0.596810000000     0.194150000000     0.0486249  
H409     H      0.641550000000     0.490650000000     0.354590000000     0.0483249  
H410     H      0.654370000000     0.457210000000     0.360520000000     0.0416037  
H411     H      0.594900000000     0.436880000000     0.372310000000     0.0410709  
H412     H      0.582160000000     0.470250000000     0.366790000000     0.0482666  
H413     H      0.577730000000     0.491810000000     0.338500000000     0.0482989  
H414     H      0.564480000000     0.524300000000     0.330050000000     0.0409665  
H415     H      0.612570000000     0.552220000000     0.361610000000     0.0413075  
H416     H      0.625720000000     0.519530000000     0.370420000000     0.0484805  
H417     H      0.575520000000     0.700220000000     0.337800000000     0.0482891  
H418     H      0.568390000000     0.667360000000     0.324870000000     0.0409085  
H419     H      0.595100000000     0.640970000000     0.376660000000     0.040869   
H420     H      0.602670000000     0.674080000000     0.389510000000     0.0485478  
H421     H      0.585920000000     0.703690000000     0.402780000000     0.04824    
H422     H      0.590970000000     0.737590000000     0.414720000000     0.0413482  
H423     H      0.607800000000     0.755540000000     0.355700000000     0.0412997  
H424     H      0.603240000000     0.721750000000     0.343900000000     0.0482873  
H425     H      0.889440000000     0.859660000000     0.260810000000     0.0482693  
H426     H      0.901970000000     0.856040000000     0.226960000000     0.0414207  
H427     H      0.843360000000     0.839920000000     0.207130000000     0.0414     
H428     H      0.830960000000     0.843030000000     0.240890000000     0.0480978  
H429     H      0.824160000000     0.869510000000     0.263880000000     0.0481124  
H430     H      0.811340000000     0.876080000000     0.296970000000     0.0405735  
H431     H      0.863390000000     0.848750000000     0.322440000000     0.0416409  
H432     H      0.876110000000     0.841710000000     0.289170000000     0.0484892  
H433     H      0.825810000000     0.953270000000     0.110590000000     0.0480345  
H434     H      0.814260000000     0.987530000000     0.107500000000     0.0405913  
H435     H      0.864100000000     0.007390000000     0.142220000000     0.0406078  
H436     H      0.875110000000     0.973340000000     0.146200000000     0.047678   
H437     H      0.889860000000     0.946870000000     0.129430000000     0.048226   
H438     H      0.901520000000     0.913460000000     0.136430000000     0.0392233  
H439     H      0.841070000000     0.892920000000     0.138970000000     0.0391977  
H440     H      0.829200000000     0.926640000000     0.133010000000     0.0482719  
H441     H      0.481420000000     0.857610000000     0.888060000000     0.0480992  
H442     H      0.514950000000     0.860110000000     0.874790000000     0.0398014  
H443     H      0.494750000000     0.836870000000     0.818670000000     0.0412528  
H444     H      0.461250000000     0.833950000000     0.832070000000     0.0486591  
H445     H      0.432180000000     0.851910000000     0.844360000000     0.0484241  
H446     H      0.399700000000     0.843530000000     0.858060000000     0.0417021  
H447     H      0.427830000000     0.822520000000     0.911520000000     0.0405245  
H448     H      0.460180000000     0.830500000000     0.897770000000     0.0482039  
H449     H      0.569900000000     0.741340000000     0.843750000000     0.0484613  
H450     H      0.561600000000     0.773830000000     0.830450000000     0.0404442  
H451     H      0.604360000000     0.800870000000     0.869590000000     0.041234   
H452     H      0.612850000000     0.768150000000     0.882820000000     0.0487642  
H453     H      0.597800000000     0.717820000000     0.843520000000     0.0484654  
H454     H      0.603290000000     0.684630000000     0.856580000000     0.0406774  
H455     H      0.603090000000     0.708180000000     0.916190000000     0.0414915  
H456     H      0.597340000000     0.741500000000     0.903080000000     0.048616   
H457     H      0.750840000000     0.874080000000     0.626220000000     0.0482323  
H458     H      0.716750000000     0.886110000000     0.629720000000     0.0403887  
H459     H      0.696090000000     0.836740000000     0.594650000000     0.0400461  
H460     H      0.729940000000     0.825250000000     0.590300000000     0.0481085  
H461     H      0.756290000000     0.810050000000     0.606700000000     0.0482171  
H462     H      0.789470000000     0.797960000000     0.599120000000     0.0396908  
H463     H      0.810800000000     0.858140000000     0.596840000000     0.0393944  
H464     H      0.777300000000     0.870450000000     0.603400000000     0.048122   
H465     H      0.632170000000     0.876000000000     0.512380000000     0.0481378  
H466     H      0.639290000000     0.888370000000     0.545520000000     0.0403615  
H467     H      0.611800000000     0.836560000000     0.570830000000     0.0418023  
H468     H      0.604270000000     0.824320000000     0.537550000000     0.0485868  
H469     H      0.621760000000     0.810950000000     0.508730000000     0.0483998  
H470     H      0.617170000000     0.798740000000     0.474910000000     0.0415232  
H471     H      0.601050000000     0.857800000000     0.456070000000     0.0412661  
H472     H      0.605170000000     0.869900000000     0.489830000000     0.0480801  
H473     H      0.637580000000     0.863270000000     0.720160000000     0.0481634  
H474     H      0.650780000000     0.871480000000     0.687630000000     0.0403456  
H475     H      0.598320000000     0.847460000000     0.660100000000     0.0417593  
H476     H      0.585210000000     0.838860000000     0.692730000000     0.0484867  
H477     H      0.572130000000     0.856700000000     0.721470000000     0.0485834  
H478     H      0.558850000000     0.853360000000     0.754940000000     0.0420636  
H479     H      0.616060000000     0.833060000000     0.775440000000     0.0402514  
H480     H      0.629250000000     0.836000000000     0.741910000000     0.0480892  
H481     H      0.963630000000     0.832750000000     0.654190000000     0.0484737  
H482     H      0.997170000000     0.838020000000     0.666700000000     0.0416618  
H483     H      0.018070000000     0.846960000000     0.606880000000     0.040397   
H484     H      0.984560000000     0.842190000000     0.594420000000     0.0483104  
H485     H      0.935240000000     0.848490000000     0.638180000000     0.0485339  
H486     H      0.902390000000     0.839900000000     0.625550000000     0.0411693  
H487     H      0.929630000000     0.806430000000     0.578010000000     0.0405725  
H488     H      0.962280000000     0.814590000000     0.590780000000     0.0483015  
H489     H      0.127310000000     0.866830000000     0.741980000000     0.0479155  
H490     H      0.116090000000     0.862060000000     0.708170000000     0.0397024  
H491     H      0.062170000000     0.835370000000     0.729610000000     0.0407925  
H492     H      0.073830000000     0.839060000000     0.763660000000     0.0481763  
H493     H      0.079370000000     0.862280000000     0.788870000000     0.0481729  
H494     H      0.091260000000     0.869240000000     0.822300000000     0.0387132  
H495     H      0.151480000000     0.859340000000     0.802860000000     0.0392878  
H496     H      0.139710000000     0.851190000000     0.769810000000     0.0481861  
H497     H      0.090900000000     0.736880000000     0.584450000000     0.0482772  
H498     H      0.095550000000     0.702940000000     0.572330000000     0.0414517  
H499     H      0.111910000000     0.684280000000     0.631270000000     0.0413373  
H500     H      0.107720000000     0.718120000000     0.643260000000     0.0481759  
H501     H      0.080320000000     0.740440000000     0.649410000000     0.0483476  
H502     H      0.073250000000     0.773490000000     0.662140000000     0.0403951  
H503     H      0.100760000000     0.799180000000     0.610470000000     0.0407997  
H504     H      0.108240000000     0.765910000000     0.597820000000     0.0486435  
H505     H      0.126990000000     0.924310000000     0.618830000000     0.0486148  
H506     H      0.114710000000     0.890990000000     0.625910000000     0.0415068  
H507     H      0.064040000000     0.916440000000     0.656040000000     0.0406328  
H508     H      0.076420000000     0.949560000000     0.649340000000     0.0482192  
H509     H      0.081470000000     0.972250000000     0.622170000000     0.0481274  
H510     H      0.093260000000     0.006050000000     0.618090000000     0.0418179  
H511     H      0.152850000000     0.986860000000     0.631820000000     0.041236   
H512     H      0.140950000000     0.952960000000     0.636340000000     0.0483021  
H513     H      0.363880000000     0.127180000000     0.475910000000     0.0482822  
H514     H      0.367040000000     0.138670000000     0.510160000000     0.0406449  
H515     H      0.333470000000     0.088170000000     0.530130000000     0.0399254  
H516     H      0.329410000000     0.077220000000     0.496110000000     0.0480873  
H517     H      0.346130000000     0.062890000000     0.469430000000     0.0483637  
H518     H      0.338760000000     0.051320000000     0.436110000000     0.0394736  
H519     H      0.334860000000     0.111860000000     0.415870000000     0.039175   
H520     H      0.341170000000     0.123630000000     0.449530000000     0.048304   
H521     H      0.379660000000     0.217280000000     0.638860000000     0.0480657  
H522     H      0.374990000000     0.183450000000     0.627550000000     0.0398933  
H523     H      0.341930000000     0.204680000000     0.577110000000     0.0406292  
H524     H      0.345690000000     0.238740000000     0.588940000000     0.0482785  
H525     H      0.368980000000     0.264460000000     0.592670000000     0.0482403  
H526     H      0.376140000000     0.297890000000     0.604570000000     0.039379   
H527     H      0.371990000000     0.277510000000     0.664970000000     0.0394441  
H528     H      0.363770000000     0.244430000000     0.653280000000     0.0482452  
H529     H      0.227730000000     0.119140000000     0.622040000000     0.0481701  
H530     H      0.194010000000     0.106980000000     0.625590000000     0.0413715  
H531     H      0.213360000000     0.048450000000     0.607690000000     0.0413974  
H532     H      0.247170000000     0.060760000000     0.603650000000     0.0483903  
H533     H      0.275980000000     0.073650000000     0.621330000000     0.0486421  
H534     H      0.309120000000     0.086280000000     0.613990000000     0.0415556  
H535     H      0.283050000000     0.138840000000     0.588270000000     0.0405782  
H536     H      0.250100000000     0.126120000000     0.595170000000     0.0481967  
H537     H      0.432720000000     0.090960000000     0.639430000000     0.0485777  
H538     H      0.399540000000     0.098820000000     0.627080000000     0.0415635  
H539     H      0.425390000000     0.126270000000     0.575470000000     0.0406451  
H540     H      0.458400000000     0.118890000000     0.587940000000     0.0482155  
H541     H      0.481210000000     0.092160000000     0.594250000000     0.0481808  
H542     H      0.514950000000     0.088650000000     0.606620000000     0.041002   
H543     H      0.494920000000     0.104320000000     0.665460000000     0.041776   
H544     H      0.461170000000     0.108350000000     0.653000000000     0.0484597  
H545     H      0.586740000000     0.965730000000     0.642570000000     0.0478401  
H546     H      0.598530000000     0.932000000000     0.637740000000     0.0399323  
H547     H      0.650320000000     0.953870000000     0.607340000000     0.0404512  
H548     H      0.638080000000     0.987850000000     0.611340000000     0.0480101  
H549     H      0.632740000000     0.013440000000     0.634970000000     0.0482789  
H550     H      0.619950000000     0.046740000000     0.641770000000     0.0390945  
H551     H      0.560170000000     0.025670000000     0.633720000000     0.0400553  
H552     H      0.572830000000     0.992730000000     0.625970000000     0.0476886  
H553     H      0.609480000000     0.170800000000     0.598240000000     0.0485222  
H554     H      0.600480000000     0.137900000000     0.610460000000     0.0409274  
H555     H      0.566690000000     0.165090000000     0.657800000000     0.0407828  
H556     H      0.575270000000     0.197760000000     0.645450000000     0.0483766  
H557     H      0.594370000000     0.199770000000     0.582390000000     0.0484384  
H558     H      0.600170000000     0.233480000000     0.570580000000     0.041469   
H559     H      0.608650000000     0.253240000000     0.630900000000     0.0404782  
H560     H      0.603340000000     0.219580000000     0.642650000000     0.0483557  
H561     H      0.778040000000     0.072810000000     0.867990000000     0.0487551  
H562     H      0.810890000000     0.085630000000     0.876270000000     0.0411068  
H563     H      0.783640000000     0.136020000000     0.905340000000     0.0405795  
H564     H      0.750980000000     0.123130000000     0.897390000000     0.0484413  
H565     H      0.749010000000     0.058640000000     0.884910000000     0.04869    
H566     H      0.715460000000     0.046230000000     0.879550000000     0.0416002  
H567     H      0.695940000000     0.105270000000     0.864060000000     0.0407062  
H568     H      0.729470000000     0.117580000000     0.869040000000     0.0484496  
H569     H      0.609120000000     0.925930000000     0.880620000000     0.0491287  
H570     H      0.595050000000     0.893410000000     0.872520000000     0.0404304  
H571     H      0.589500000000     0.911080000000     0.811310000000     0.0395198  
H572     H      0.603880000000     0.943280000000     0.819340000000     0.0487765  
H573     H      0.638390000000     0.955840000000     0.832630000000     0.0490313  
H574     H      0.650090000000     0.989590000000     0.838780000000     0.0396386  
H575     H      0.606160000000     0.996700000000     0.884940000000     0.0394099  
H576     H      0.594740000000     0.962780000000     0.879000000000     0.0491505  
H577     H      0.634340000000     0.074830000000     0.764790000000     0.0484202  
H578     H      0.647970000000     0.067430000000     0.797230000000     0.0413274  
H579     H      0.591190000000     0.080210000000     0.824200000000     0.0403461  
H580     H      0.577510000000     0.088050000000     0.791510000000     0.0484403  
H581     H      0.568800000000     0.071020000000     0.760430000000     0.0483744  
H582     H      0.556760000000     0.075320000000     0.726530000000     0.0405872  
H583     H      0.610660000000     0.106140000000     0.711420000000     0.0407431  
H584     H      0.622440000000     0.102290000000     0.745260000000     0.0485372  
H585     H      0.623620000000     0.130400000000     0.974820000000     0.0483653  
H586     H      0.619030000000     0.142640000000     0.008710000000     0.0410044  
H587     H      0.602370000000     0.083830000000     0.027400000000     0.0408787  
H588     H      0.606570000000     0.071720000000     0.993640000000     0.0484452  
H589     H      0.634480000000     0.065550000000     0.971740000000     0.0483624  
H590     H      0.641590000000     0.052500000000     0.938850000000     0.0413368  
H591     H      0.613560000000     0.103760000000     0.912580000000     0.0410095  
H592     H      0.606100000000     0.116780000000     0.945710000000     0.0484968  
H593     H      0.813150000000     0.585920000000     0.970120000000     0.0488963  
H594     H      0.805990000000     0.571560000000     0.937700000000     0.0395712  
H595     H      0.860090000000     0.596490000000     0.914470000000     0.0402032  
H596     H      0.867430000000     0.610620000000     0.947210000000     0.049254   
H597     H      0.874770000000     0.595080000000     0.982470000000     0.0491515  
H598     H      0.880710000000     0.605710000000     0.016680000000     0.0403536  
H599     H      0.822490000000     0.632650000000     0.018600000000     0.0393922  
H600     H      0.816500000000     0.621740000000     0.984550000000     0.0487735  
H601     H      0.851190000000     0.737790000000     0.084790000000     0.0482898  
H602     H      0.848550000000     0.703570000000     0.073120000000     0.03996    
H603     H      0.876630000000     0.683080000000     0.126760000000     0.0394907  
H604     H      0.880320000000     0.717060000000     0.137970000000     0.0482006  
H605     H      0.863160000000     0.744120000000     0.150620000000     0.048329   
H606     H      0.870040000000     0.777340000000     0.162780000000     0.0390817  
H607     H      0.879100000000     0.797460000000     0.102830000000     0.0389603  
H608     H      0.873400000000     0.763880000000     0.090550000000     0.0481154  
H609     H      0.760050000000     0.618760000000     0.115220000000     0.0485044  
H610     H      0.792410000000     0.632830000000     0.108540000000     0.040712   
H611     H      0.815340000000     0.574570000000     0.094420000000     0.0392561  
H612     H      0.782860000000     0.560250000000     0.101700000000     0.048311   
H613     H      0.749930000000     0.559450000000     0.087440000000     0.0478908  
H614     H      0.715660000000     0.548340000000     0.090830000000     0.039311   
H615     H      0.707530000000     0.588040000000     0.140530000000     0.0408352  
H616     H      0.741830000000     0.598660000000     0.137640000000     0.0482939  
H617     H      0.357820000000     0.173410000000     0.095430000000     0.048617   
H618     H      0.364800000000     0.140110000000     0.108110000000     0.04074    
H619     H      0.391880000000     0.165810000000     0.160090000000     0.0405034  
H620     H      0.385300000000     0.198840000000     0.147360000000     0.0484116  
H621     H      0.357930000000     0.221170000000     0.141110000000     0.0482822  
H622     H      0.354250000000     0.255050000000     0.129400000000     0.0415609  
H623     H      0.371530000000     0.236450000000     0.070530000000     0.0413156  
H624     H      0.375660000000     0.202420000000     0.082390000000     0.0482513  
H625     H      0.360020000000     0.368730000000     0.995820000000     0.0481676  
H626     H      0.363690000000     0.356510000000     0.029500000000     0.0414473  
H627     H      0.346350000000     0.297990000000     0.010200000000     0.0413725  
H628     H      0.342190000000     0.310360000000     0.976420000000     0.0482891  
H629     H      0.359780000000     0.323450000000     0.947520000000     0.048635   
H630     H      0.352380000000     0.336290000000     0.914450000000     0.0414434  
H631     H      0.325960000000     0.388570000000     0.940790000000     0.0406881  
H632     H      0.332920000000     0.375660000000     0.973650000000     0.0482913  
H633     H      0.439010000000     0.328960000000     0.146640000000     0.0482291  
H634     H      0.405750000000     0.322340000000     0.134190000000     0.0390354  
H635     H      0.426540000000     0.330240000000     0.074250000000     0.0390589  
H636     H      0.459450000000     0.338070000000     0.086560000000     0.0482041  
H637     H      0.486860000000     0.322270000000     0.099810000000     0.048005   
H638     H      0.520490000000     0.326680000000     0.111660000000     0.0396496  
H639     H      0.498210000000     0.355140000000     0.164630000000     0.0405515  
H640     H      0.464360000000     0.351810000000     0.152300000000     0.0482035  
H641     H      0.963380000000     0.322160000000     0.332000000000     0.0480453  
H642     H      0.997200000000     0.327200000000     0.319900000000     0.040745   
H643     H      0.012550000000     0.355250000000     0.375370000000     0.0414227  
H644     H      0.978810000000     0.350760000000     0.387220000000     0.048338   
H645     H      0.959420000000     0.323050000000     0.397850000000     0.0483503  
H646     H      0.927070000000     0.315470000000     0.411560000000     0.0413457  
H647     H      0.899640000000     0.330180000000     0.355680000000     0.0402504  
H648     H      0.932250000000     0.338300000000     0.341950000000     0.048436   
H649     H      0.133100000000     0.424640000000     0.350800000000     0.0481494  
H650     H      0.120290000000     0.391590000000     0.343920000000     0.0387325  
H651     H      0.060650000000     0.412830000000     0.353860000000     0.0392949  
H652     H      0.073340000000     0.445540000000     0.362030000000     0.048151   
H653     H      0.086340000000     0.473290000000     0.347200000000     0.0479583  
H654     H      0.098670000000     0.506670000000     0.352310000000     0.0391395  
H655     H      0.152440000000     0.482990000000     0.377690000000     0.0406187  
H656     H      0.139670000000     0.449420000000     0.373780000000     0.0482825  
H657     H      0.088830000000     0.265330000000     0.396020000000     0.0482387  
H658     H      0.082300000000     0.298610000000     0.383350000000     0.039076   
H659     H      0.088090000000     0.276700000000     0.323450000000     0.0398294  
H660     H      0.095610000000     0.243750000000     0.335950000000     0.048313   
H661     H      0.079100000000     0.217200000000     0.350470000000     0.0480965  
H662     H      0.083790000000     0.183530000000     0.362190000000     0.0399011  
H663     H      0.115910000000     0.205480000000     0.412940000000     0.0405287  
H664     H      0.112090000000     0.239370000000     0.400720000000     0.0483019  
H665     H      0.133830000000     0.591470000000     0.242670000000     0.0482355  
H666     H      0.121070000000     0.596070000000     0.209250000000     0.0410191  
H667     H      0.061500000000     0.586240000000     0.230530000000     0.0417572  
H668     H      0.074330000000     0.581210000000     0.264000000000     0.0484098  
H669     H      0.090230000000     0.597830000000     0.292000000000     0.0485823  
H670     H      0.103000000000     0.589860000000     0.324930000000     0.0417766  
H671     H      0.151000000000     0.556580000000     0.298210000000     0.0406823  
H672     H      0.138100000000     0.564170000000     0.265430000000     0.0482587  
H673     H      0.936080000000     0.591890000000     0.141140000000     0.0485166  
H674     H      0.903070000000     0.599070000000     0.127810000000     0.0406185  
H675     H      0.929840000000     0.628350000000     0.077690000000     0.0414942  
H676     H      0.962620000000     0.621440000000     0.091040000000     0.0483154  
H677     H      0.984880000000     0.593490000000     0.097110000000     0.0485064  
H678     H      0.018480000000     0.589800000000     0.109700000000     0.0410223  
H679     H      0.998300000000     0.606290000000     0.168280000000     0.0408524  
H680     H      0.964550000000     0.610300000000     0.155550000000     0.0484823  
H681     H      0.117990000000     0.808850000000     0.976470000000     0.0483974  
H682     H      0.112990000000     0.796750000000     0.010190000000     0.0416729  
H683     H      0.103340000000     0.856830000000     0.030490000000     0.0404561  
H684     H      0.107830000000     0.868880000000     0.996820000000     0.0482541  
H685     H      0.102090000000     0.824500000000     0.947980000000     0.048606   
H686     H      0.110430000000     0.836920000000     0.914970000000     0.0408695  
H687     H      0.143270000000     0.884910000000     0.941610000000     0.0405932  
H688     H      0.135380000000     0.872350000000     0.974390000000     0.0484095  
H689     H      0.091990000000     0.675580000000     0.094650000000     0.0482101  
H690     H      0.085390000000     0.642280000000     0.106890000000     0.0391308  
H691     H      0.092230000000     0.663050000000     0.167020000000     0.0389598  
H692     H      0.100070000000     0.696040000000     0.154930000000     0.0481076  
H693     H      0.084560000000     0.723450000000     0.141500000000     0.0480218  
H694     H      0.088880000000     0.757080000000     0.129670000000     0.0395597  
H695     H      0.117860000000     0.734820000000     0.076990000000     0.0405358  
H696     H      0.114650000000     0.700990000000     0.089320000000     0.048179   
H697     H      0.210740000000     0.815600000000     0.091460000000     0.0482876  
H698     H      0.177800000000     0.802920000000     0.084540000000     0.0404507  
H699     H      0.151710000000     0.853720000000     0.113940000000     0.0408402  
H700     H      0.184890000000     0.866300000000     0.121320000000     0.0485952  
H701     H      0.213700000000     0.880280000000     0.104250000000     0.0482604  
H702     H      0.247560000000     0.892290000000     0.108860000000     0.0413567  
H703     H      0.266870000000     0.832790000000     0.122760000000     0.0412099  
H704     H      0.233130000000     0.820910000000     0.118650000000     0.0481862  
H705     H      0.978910000000     0.842800000000     0.094830000000     0.0481216  
H706     H      0.945060000000     0.847070000000     0.106690000000     0.0413675  
H707     H      0.964060000000     0.833410000000     0.166220000000     0.0414354  
H708     H      0.998030000000     0.828750000000     0.154240000000     0.048275   
H709     H      0.026650000000     0.846310000000     0.140030000000     0.0487093  
H710     H      0.060030000000     0.839070000000     0.127600000000     0.0416218  
H711     H      0.034840000000     0.808400000000     0.077390000000     0.0406821  
H712     H      0.001660000000     0.815290000000     0.089900000000     0.048404   
H713     H      0.230270000000     0.323980000000     0.096600000000     0.0478966  
H714     H      0.196370000000     0.335350000000     0.101150000000     0.039706   
H715     H      0.217470000000     0.388500000000     0.129820000000     0.040861   
H716     H      0.251580000000     0.376650000000     0.126350000000     0.0481938  
H717     H      0.277050000000     0.371560000000     0.103350000000     0.0482656  
H718     H      0.310600000000     0.359690000000     0.096490000000     0.0388902  
H719     H      0.291160000000     0.299330000000     0.104060000000     0.0391258  
H720     H      0.257960000000     0.311050000000     0.112120000000     0.0481896  
H721     H      0.080030000000     0.490670000000     0.148880000000     0.0484284  
H722     H      0.067620000000     0.523540000000     0.157290000000     0.0405628  
H723     H      0.115990000000     0.549940000000     0.124870000000     0.0412147  
H724     H      0.128250000000     0.516870000000     0.116030000000     0.0486575  
H725     H      0.083700000000     0.468470000000     0.121010000000     0.0483387  
H726     H      0.095730000000     0.434700000000     0.116110000000     0.0404516  
H727     H      0.155740000000     0.454280000000     0.126310000000     0.0416967  
H728     H      0.143650000000     0.488080000000     0.131710000000     0.0485089  
H729     H      0.136030000000     0.370090000000     0.222660000000     0.0483984  
H730     H      0.149460000000     0.376880000000     0.189950000000     0.0402564  
H731     H      0.096590000000     0.353030000000     0.163060000000     0.0408293  
H732     H      0.083180000000     0.345870000000     0.196000000000     0.0486781  
H733     H      0.070610000000     0.363870000000     0.225340000000     0.0483783  
H734     H      0.057980000000     0.359640000000     0.259080000000     0.0410943  
H735     H      0.115610000000     0.338700000000     0.277710000000     0.0414974  
H736     H      0.128070000000     0.342530000000     0.244090000000     0.0483334  
H737     H      0.081830000000     0.200320000000     0.838900000000     0.0481969  
H738     H      0.074880000000     0.167090000000     0.826790000000     0.0406976  
H739     H      0.100910000000     0.142210000000     0.879650000000     0.041463   
H740     H      0.108330000000     0.175620000000     0.891660000000     0.0486049  
H741     H      0.090750000000     0.204850000000     0.904120000000     0.048413   
H742     H      0.094770000000     0.238940000000     0.915810000000     0.0415245  
H743     H      0.112170000000     0.256760000000     0.856910000000     0.0413776  
H744     H      0.108660000000     0.222740000000     0.845350000000     0.0481279  
H745     H      0.137670000000     0.375370000000     0.013920000000     0.0482788  
H746     H      0.144450000000     0.387640000000     0.047160000000     0.0405969  
H747     H      0.114190000000     0.337200000000     0.072060000000     0.0415854  
H748     H      0.107030000000     0.325040000000     0.038650000000     0.0486953  
H749     H      0.124480000000     0.310980000000     0.009890000000     0.0480415  
H750     H      0.119620000000     0.299150000000     0.975960000000     0.0417715  
H751     H      0.105910000000     0.358890000000     0.957390000000     0.0414194  
H752     H      0.110350000000     0.370620000000     0.991230000000     0.0482377  
H753     H      0.998780000000     0.355440000000     0.838800000000     0.0481396  
H754     H      0.964490000000     0.358570000000     0.827490000000     0.0406227  
H755     H      0.944850000000     0.324350000000     0.877720000000     0.0400033  
H756     H      0.978930000000     0.320380000000     0.888520000000     0.047959   
H757     H      0.005430000000     0.337270000000     0.902870000000     0.0484396  
H758     H      0.038860000000     0.330080000000     0.914270000000     0.0394922  
H759     H      0.059160000000     0.326470000000     0.853680000000     0.0393034  
H760     H      0.025410000000     0.332670000000     0.842090000000     0.0483406  
H761     H      0.208270000000     0.312980000000     0.875240000000     0.0482654  
H762     H      0.175040000000     0.301270000000     0.882640000000     0.0394622  
H763     H      0.154570000000     0.361710000000     0.888770000000     0.0392564  
H764     H      0.188120000000     0.373580000000     0.882440000000     0.0482749  
H765     H      0.214380000000     0.377930000000     0.859770000000     0.0483175  
H766     H      0.248530000000     0.389560000000     0.856970000000     0.0406177  
H767     H      0.268950000000     0.337720000000     0.888430000000     0.0398551  
H768     H      0.235010000000     0.326590000000     0.892140000000     0.0481261  
In1      In     0.107270000000     0.309700000000     0.905140000000     2.41065    
In2      In     0.145810000000     0.382940000000     0.118660000000     2.41476    
In3      In     0.106380000000     0.806670000000     0.081710000000     2.4156     
In4      In     0.069930000000     0.595090000000     0.159030000000     2.41511    
In5      In     0.066990000000     0.345120000000     0.329870000000     2.4075     
In6      In     0.358790000000     0.307560000000     0.081300000000     2.40905    
In7      In     0.858360000000     0.631700000000     0.080750000000     2.40473    
In8      In     0.644560000000     0.055370000000     0.867480000000     2.41317    
In9      In     0.566120000000     0.093500000000     0.656710000000     2.40833    
In10     In     0.354240000000     0.132900000000     0.581650000000     2.412      
In11     In     0.068730000000     0.844880000000     0.657760000000     2.41479    
In12     In     0.645060000000     0.881700000000     0.616760000000     2.40852    
In13     In     0.566310000000     0.845240000000     0.826290000000     2.40832    
In14     In     0.892860000000     0.844930000000     0.155630000000     2.41384    
In15     In     0.565420000000     0.595940000000     0.327430000000     2.40921    
In16     In     0.645700000000     0.385940000000     0.371130000000     2.40985    
In17     In     0.648370000000     0.554430000000     0.118170000000     2.40459    
In18     In     0.570160000000     0.344200000000     0.159650000000     2.41457    
In19     In     0.817250000000     0.881700000000     0.368180000000     2.40802    
In20     In     0.388930000000     0.844630000000     0.334480000000     2.40458    
In21     In     0.604030000000     0.808370000000     0.404090000000     2.40928    
In22     In     0.394070000000     0.345160000000     0.656480000000     2.41107    
In23     In     0.606990000000     0.304960000000     0.581210000000     2.41142    
In24     In     0.108830000000     0.631980000000     0.582280000000     2.40667    
In25     In     0.148060000000     0.555130000000     0.369900000000     2.40818    
In26     In     0.356680000000     0.635390000000     0.411170000000     2.39245    
In27     In     0.323060000000     0.559830000000     0.620890000000     2.40362    
In28     In     0.143660000000     0.883510000000     0.870120000000     2.41223    
In29     In     0.320080000000     0.383540000000     0.869600000000     2.41297    
In30     In     0.357150000000     0.810870000000     0.906670000000     2.40902    
In31     In     0.394250000000     0.596390000000     0.834920000000     2.41178    
In32     In     0.855200000000     0.133680000000     0.907940000000     2.41562    
In33     In     0.606940000000     0.635880000000     0.908800000000     2.41547    
In34     In     0.858010000000     0.805680000000     0.579290000000     2.41346    
In35     In     0.895930000000     0.594200000000     0.656540000000     2.40803    
In36     In     0.818180000000     0.558360000000     0.868680000000     2.41054    
In37     In     0.893020000000     0.345720000000     0.833560000000     2.4087     
In38     In     0.856570000000     0.305130000000     0.409180000000     2.41037    
In39     In     0.817720000000     0.382970000000     0.620940000000     2.41673    
In40     In     0.318700000000     0.881850000000     0.120680000000     2.41468    
In41     In     0.895030000000     0.093490000000     0.332050000000     2.40779    
In42     In     0.068500000000     0.096140000000     0.833700000000     2.41345    
In43     In     0.105360000000     0.133460000000     0.408200000000     2.41196    
In44     In     0.142240000000     0.058030000000     0.620510000000     2.41243    
In45     In     0.819960000000     0.059110000000     0.120170000000     2.41125    
In46     In     0.606980000000     0.132580000000     0.079840000000     2.4166     
In47     In     0.318360000000     0.059940000000     0.368020000000     2.41207    
In48     In     0.395470000000     0.094440000000     0.155990000000     2.41796    
O1       O      0.108450000000     0.285320000000     0.881920000000    -0.493268   
O2       O      0.102730000000     0.276730000000     0.911680000000    -0.476839   
O3       O      0.127090000000     0.333750000000     0.891750000000    -0.482243   
O4       O      0.086810000000     0.322740000000     0.881320000000    -0.483542   
O5       O      0.112260000000     0.303370000000     0.938090000000    -0.476841   
O6       O      0.074230000000     0.315220000000     0.909140000000    -0.499454   
O7       O      0.140220000000     0.306030000000     0.899070000000    -0.497983   
O8       O      0.106990000000     0.333180000000     0.929300000000    -0.493985   
O9       O      0.169030000000     0.358620000000     0.115240000000    -0.496863   
O10      O      0.179270000000     0.387910000000     0.120710000000    -0.476247   
O11      O      0.129810000000     0.361500000000     0.097880000000    -0.479569   
O12      O      0.122970000000     0.367160000000     0.138250000000    -0.481376   
O13      O      0.151720000000     0.416280000000     0.120150000000    -0.479169   
O14      O      0.148010000000     0.380010000000     0.152140000000    -0.502469   
O15      O      0.145050000000     0.385910000000     0.085160000000    -0.498919   
O16      O      0.121830000000     0.406740000000     0.117970000000    -0.498564   
O17      O      0.103170000000     0.783890000000     0.106220000000    -0.497819   
O18      O      0.108290000000     0.773080000000     0.077000000000    -0.476295   
O19      O      0.085760000000     0.823390000000     0.102980000000    -0.47877    
O20      O      0.126400000000     0.828800000000     0.098020000000    -0.480444   
O21      O      0.107240000000     0.800760000000     0.048310000000    -0.479035   
O22      O      0.139920000000     0.804260000000     0.083490000000    -0.503074   
O23      O      0.072830000000     0.807410000000     0.079070000000    -0.499069   
O24      O      0.105600000000     0.830690000000     0.058160000000    -0.498932   
O25      O      0.094330000000     0.595330000000     0.182150000000    -0.495418   
O26      O      0.064640000000     0.592250000000     0.192390000000    -0.478298   
O27      O      0.083250000000     0.614960000000     0.135050000000    -0.482026   
O28      O      0.092000000000     0.575040000000     0.142580000000    -0.481038   
O29      O      0.036670000000     0.599850000000     0.164860000000    -0.479499   
O30      O      0.068170000000     0.561510000000     0.158030000000    -0.500354   
O31      O      0.075360000000     0.628200000000     0.162570000000    -0.497595   
O32      O      0.045930000000     0.592530000000     0.135650000000    -0.498998   
O33      O      0.041950000000     0.348370000000     0.352100000000    -0.493301   
O34      O      0.034300000000     0.338860000000     0.323040000000    -0.4776     
O35      O      0.091700000000     0.364500000000     0.342710000000    -0.482977   
O36      O      0.079190000000     0.325470000000     0.354800000000    -0.483004   
O37      O      0.061140000000     0.351090000000     0.296930000000    -0.478217   
O38      O      0.072690000000     0.311990000000     0.327120000000    -0.497361   
O39      O      0.064170000000     0.378250000000     0.335850000000    -0.494379   
O40      O      0.090230000000     0.342640000000     0.305680000000    -0.493739   
O41      O      0.360140000000     0.331030000000     0.057370000000    -0.494041   
O42      O      0.354210000000     0.301460000000     0.048170000000    -0.477008   
O43      O      0.378450000000     0.320420000000     0.105820000000    -0.482672   
O44      O      0.338560000000     0.331730000000     0.094330000000    -0.482745   
O45      O      0.363740000000     0.274510000000     0.074640000000    -0.476122   
O46      O      0.325750000000     0.304000000000     0.086860000000    -0.49787    
O47      O      0.391880000000     0.313160000000     0.078230000000    -0.497734   
O48      O      0.357550000000     0.283230000000     0.104340000000    -0.494069   
O49      O      0.862390000000     0.655590000000     0.104160000000    -0.493473   
O50      O      0.857400000000     0.665120000000     0.074600000000    -0.480436   
O51      O      0.878090000000     0.614030000000     0.101980000000    -0.482527   
O52      O      0.839870000000     0.604120000000     0.088180000000    -0.48777    
O53      O      0.843470000000     0.636470000000     0.050750000000    -0.487058   
O54      O      0.827900000000     0.632400000000     0.095200000000    -0.498295   
O55      O      0.891920000000     0.630770000000     0.079170000000    -0.490911   
O56      O      0.868180000000     0.616920000000     0.051820000000    -0.486141   
O57      O      0.624040000000     0.029250000000     0.873440000000    -0.493106   
O58      O      0.650770000000     0.023470000000     0.857750000000    -0.484256   
O59      O      0.619280000000     0.068440000000     0.848710000000    -0.482169   
O60      O      0.628510000000     0.077930000000     0.887370000000    -0.481001   
O61      O      0.677660000000     0.049850000000     0.872310000000    -0.481193   
O62      O      0.643360000000     0.053670000000     0.901000000000    -0.496427   
O63      O      0.646400000000     0.061070000000     0.834440000000    -0.497937   
O64      O      0.668230000000     0.079180000000     0.865590000000    -0.495006   
O65      O      0.587780000000     0.098570000000     0.681980000000    -0.497046   
O66      O      0.559770000000     0.086450000000     0.689370000000    -0.480115   
O67      O      0.582610000000     0.113130000000     0.634490000000    -0.481155   
O68      O      0.591410000000     0.073830000000     0.644830000000    -0.481674   
O69      O      0.532860000000     0.097180000000     0.662190000000    -0.478134   
O70      O      0.563390000000     0.060580000000     0.649880000000    -0.496205   
O71      O      0.566470000000     0.127140000000     0.657750000000    -0.497906   
O72      O      0.542690000000     0.092060000000     0.632610000000    -0.492812   
O73      O      0.348260000000     0.109810000000     0.557890000000    -0.499725   
O74      O      0.357740000000     0.138230000000     0.548310000000    -0.477504   
O75      O      0.334300000000     0.111200000000     0.598360000000    -0.477559   
O76      O      0.374280000000     0.115630000000     0.602910000000    -0.47812    
O77      O      0.350740000000     0.166390000000     0.577050000000    -0.478001   
O78      O      0.387510000000     0.129130000000     0.577780000000    -0.498824   
O79      O      0.320930000000     0.136600000000     0.585340000000    -0.498628   
O80      O      0.360200000000     0.156180000000     0.605270000000    -0.499604   
O81      O      0.045460000000     0.845390000000     0.633420000000    -0.498566   
O82      O      0.035270000000     0.843740000000     0.663180000000    -0.478917   
O83      O      0.085250000000     0.824680000000     0.635710000000    -0.480558   
O84      O      0.090220000000     0.865380000000     0.641520000000    -0.479143   
O85      O      0.063340000000     0.843610000000     0.691220000000    -0.476469   
O86      O      0.065800000000     0.878420000000     0.656810000000    -0.499163   
O87      O      0.071110000000     0.811370000000     0.660380000000    -0.502491   
O88      O      0.092810000000     0.848160000000     0.681030000000    -0.497979   
O89      O      0.621510000000     0.905020000000     0.623300000000    -0.500063   
O90      O      0.649870000000     0.915290000000     0.614440000000    -0.478354   
O91      O      0.623410000000     0.864100000000     0.635910000000    -0.477526   
O92      O      0.628090000000     0.860680000000     0.596300000000    -0.477309   
O93      O      0.678500000000     0.886440000000     0.620630000000    -0.477259   
O94      O      0.641730000000     0.885920000000     0.583490000000    -0.497653   
O95      O      0.648590000000     0.876700000000     0.649910000000    -0.49721    
O96      O      0.668610000000     0.858530000000     0.609920000000    -0.499846   
O97      O      0.542640000000     0.852490000000     0.849390000000    -0.499103   
O98      O      0.532820000000     0.842970000000     0.821100000000    -0.480262   
O99      O      0.583830000000     0.865390000000     0.847220000000    -0.476234   
O100     O      0.585570000000     0.825350000000     0.845970000000    -0.479476   
O101     O      0.561440000000     0.847820000000     0.792930000000    -0.478059   
O102     O      0.563150000000     0.811800000000     0.828590000000    -0.499966   
O103     O      0.572560000000     0.877810000000     0.820580000000    -0.496378   
O104     O      0.589990000000     0.838910000000     0.803000000000    -0.495524   
O105     O      0.869110000000     0.843670000000     0.179390000000    -0.494283   
O106     O      0.898720000000     0.848830000000     0.188850000000    -0.476965   
O107     O      0.880080000000     0.825150000000     0.131140000000    -0.481999   
O108     O      0.869080000000     0.865330000000     0.142370000000    -0.483639   
O109     O      0.925940000000     0.840360000000     0.162080000000    -0.476756   
O110     O      0.896470000000     0.878070000000     0.151040000000    -0.500323   
O111     O      0.887270000000     0.811920000000     0.158760000000    -0.49893    
O112     O      0.917080000000     0.845600000000     0.132320000000    -0.495114   
O113     O      0.589760000000     0.598280000000     0.304130000000    -0.496488   
O114     O      0.560790000000     0.591080000000     0.294210000000    -0.480416   
O115     O      0.587540000000     0.576600000000     0.344490000000    -0.479589   
O116     O      0.580120000000     0.615800000000     0.350870000000    -0.479371   
O117     O      0.532730000000     0.602320000000     0.321180000000    -0.481649   
O118     O      0.567190000000     0.629500000000     0.325700000000    -0.498251   
O119     O      0.564520000000     0.562300000000     0.328490000000    -0.496473   
O120     O      0.540290000000     0.591050000000     0.349540000000    -0.494397   
O121     O      0.621470000000     0.409430000000     0.371660000000    -0.494295   
O122     O      0.651150000000     0.419210000000     0.367540000000    -0.477921   
O123     O      0.633020000000     0.361320000000     0.390640000000    -0.482531   
O124     O      0.623600000000     0.369620000000     0.351240000000    -0.48066    
O125     O      0.678640000000     0.391790000000     0.377470000000    -0.4799     
O126     O      0.647510000000     0.384760000000     0.337540000000    -0.498219   
O127     O      0.639080000000     0.389110000000     0.404120000000    -0.495858   
O128     O      0.670330000000     0.363160000000     0.367480000000    -0.498009   
O129     O      0.624450000000     0.530930000000     0.117500000000    -0.491735   
O130     O      0.654210000000     0.521100000000     0.121300000000    -0.479466   
O131     O      0.640590000000     0.581400000000     0.098840000000    -0.484945   
O132     O      0.626120000000     0.571990000000     0.137210000000    -0.482136   
O133     O      0.680020000000     0.548380000000     0.106940000000    -0.48321    
O134     O      0.648180000000     0.554810000000     0.151760000000    -0.49471    
O135     O      0.637000000000     0.552690000000     0.086500000000    -0.494264   
O136     O      0.675530000000     0.572040000000     0.127280000000    -0.49413    
O137     O      0.594140000000     0.343730000000     0.183310000000    -0.499243   
O138     O      0.564230000000     0.345810000000     0.193010000000    -0.480216   
O139     O      0.592330000000     0.363640000000     0.142860000000    -0.480415   
O140     O      0.587150000000     0.323560000000     0.138710000000    -0.4792     
O141     O      0.536570000000     0.346120000000     0.164390000000    -0.476862   
O142     O      0.570770000000     0.310600000000     0.162280000000    -0.498062   
O143     O      0.567970000000     0.377760000000     0.157070000000    -0.501862   
O144     O      0.547280000000     0.340740000000     0.135220000000    -0.498074   
O145     O      0.793530000000     0.858640000000     0.373970000000    -0.499636   
O146     O      0.783810000000     0.887230000000     0.364960000000    -0.477534   
O147     O      0.833980000000     0.859530000000     0.387690000000    -0.477363   
O148     O      0.838680000000     0.864680000000     0.347920000000    -0.476751   
O149     O      0.812770000000     0.915250000000     0.372170000000    -0.476379   
O150     O      0.813470000000     0.878400000000     0.334880000000    -0.497982   
O151     O      0.821500000000     0.885100000000     0.401450000000    -0.497643   
O152     O      0.840770000000     0.904810000000     0.361970000000    -0.499352   
O153     O      0.366250000000     0.851760000000     0.310720000000    -0.49792    
O154     O      0.393490000000     0.838850000000     0.301280000000    -0.476401   
O155     O      0.367500000000     0.865850000000     0.350330000000    -0.47742    
O156     O      0.372860000000     0.826480000000     0.358120000000    -0.477599   
O157     O      0.422280000000     0.847360000000     0.328420000000    -0.477295   
O158     O      0.381560000000     0.811850000000     0.331540000000    -0.496451   
O159     O      0.393840000000     0.877790000000     0.338010000000    -0.497675   
O160     O      0.413120000000     0.837440000000     0.356810000000    -0.497813   
O161     O      0.604910000000     0.783970000000     0.380880000000    -0.494036   
O162     O      0.599410000000     0.775370000000     0.410670000000    -0.476035   
O163     O      0.623880000000     0.832290000000     0.390470000000    -0.482173   
O164     O      0.583450000000     0.821370000000     0.380330000000    -0.482067   
O165     O      0.609210000000     0.802390000000     0.437090000000    -0.477187   
O166     O      0.571000000000     0.813710000000     0.408180000000    -0.49882    
O167     O      0.637040000000     0.804730000000     0.398270000000    -0.498377   
O168     O      0.603260000000     0.832010000000     0.428080000000    -0.493916   
O169     O      0.418110000000     0.345320000000     0.632930000000    -0.494814   
O170     O      0.427110000000     0.340040000000     0.662640000000    -0.477038   
O171     O      0.370690000000     0.365840000000     0.642890000000    -0.482435   
O172     O      0.380250000000     0.325340000000     0.632570000000    -0.481867   
O173     O      0.400290000000     0.349320000000     0.689600000000    -0.476982   
O174     O      0.388210000000     0.312220000000     0.660030000000    -0.498758   
O175     O      0.398200000000     0.378220000000     0.651700000000    -0.499637   
O176     O      0.370490000000     0.344740000000     0.680480000000    -0.494519   
O177     O      0.610350000000     0.329790000000     0.558760000000    -0.497312   
O178     O      0.606050000000     0.300640000000     0.547530000000    -0.476599   
O179     O      0.626940000000     0.325980000000     0.598680000000    -0.47859    
O180     O      0.586580000000     0.321160000000     0.603250000000    -0.480107   
O181     O      0.606100000000     0.271570000000     0.574960000000    -0.478749   
O182     O      0.573440000000     0.306990000000     0.578470000000    -0.50175    
O183     O      0.640600000000     0.302490000000     0.582450000000    -0.497651   
O184     O      0.607350000000     0.281120000000     0.604960000000    -0.498753   
O185     O      0.107580000000     0.608790000000     0.557890000000    -0.493658   
O186     O      0.113930000000     0.638400000000     0.549320000000    -0.476502   
O187     O      0.088910000000     0.618510000000     0.606290000000    -0.481751   
O188     O      0.129220000000     0.607990000000     0.595330000000    -0.482075   
O189     O      0.103570000000     0.665010000000     0.576120000000    -0.476376   
O190     O      0.141860000000     0.635690000000     0.587640000000    -0.498409   
O191     O      0.075820000000     0.626350000000     0.578790000000    -0.497438   
O192     O      0.109540000000     0.656150000000     0.605740000000    -0.493603   
O193     O      0.123030000000     0.532780000000     0.367070000000    -0.495139   
O194     O      0.152410000000     0.521470000000     0.369410000000    -0.476079   
O195     O      0.127010000000     0.572530000000     0.349860000000    -0.479066   
O196     O      0.133550000000     0.578880000000     0.389800000000    -0.481393   
O197     O      0.180820000000     0.547890000000     0.374740000000    -0.480577   
O198     O      0.144300000000     0.552630000000     0.403280000000    -0.502242   
O199     O      0.150310000000     0.555910000000     0.336310000000    -0.496077   
O200     O      0.173290000000     0.577250000000     0.366230000000    -0.494331   
O201     O      0.344640000000     0.660210000000     0.391690000000    -0.490742   
O202     O      0.360790000000     0.668460000000     0.417390000000    -0.475766   
O203     O      0.336310000000     0.621120000000     0.388000000000    -0.478966   
O204     O      0.377470000000     0.612670000000     0.396370000000    -0.479781   
O205     O      0.352120000000     0.641400000000     0.444220000000    -0.476556   
O206     O      0.387370000000     0.642350000000     0.399050000000    -0.496994   
O207     O      0.326210000000     0.622590000000     0.417760000000    -0.496208   
O208     O      0.368290000000     0.615560000000     0.435920000000    -0.490804   
O209     O      0.345670000000     0.535880000000     0.628060000000    -0.498171   
O210     O      0.318350000000     0.526580000000     0.615560000000    -0.476491   
O211     O      0.344370000000     0.575910000000     0.641780000000    -0.477845   
O212     O      0.339450000000     0.582980000000     0.602440000000    -0.477118   
O213     O      0.289610000000     0.554320000000     0.623670000000    -0.476913   
O214     O      0.330410000000     0.556440000000     0.588110000000    -0.496154   
O215     O      0.318200000000     0.563590000000     0.654070000000    -0.497343   
O216     O      0.299120000000     0.582470000000     0.613480000000    -0.498058   
O217     O      0.167400000000     0.859550000000     0.868850000000    -0.493311   
O218     O      0.176850000000     0.889350000000     0.873090000000    -0.477385   
O219     O      0.119180000000     0.870960000000     0.850170000000    -0.481863   
O220     O      0.127700000000     0.861110000000     0.889970000000    -0.481966   
O221     O      0.149440000000     0.916560000000     0.864740000000    -0.480248   
O222     O      0.143210000000     0.884790000000     0.903710000000    -0.50079    
O223     O      0.147130000000     0.877220000000     0.837170000000    -0.497098   
O224     O      0.120630000000     0.907960000000     0.873870000000    -0.497735   
O225     O      0.296570000000     0.360110000000     0.874650000000    -0.49973    
O226     O      0.286670000000     0.388830000000     0.866220000000    -0.477492   
O227     O      0.336830000000     0.361570000000     0.889380000000    -0.477717   
O228     O      0.341650000000     0.366750000000     0.849240000000    -0.477793   
O229     O      0.315090000000     0.416950000000     0.873540000000    -0.477573   
O230     O      0.316600000000     0.380810000000     0.836250000000    -0.499477   
O231     O      0.323230000000     0.386660000000     0.902960000000    -0.499402   
O232     O      0.343640000000     0.406910000000     0.864510000000    -0.499687   
O233     O      0.350120000000     0.833800000000     0.930410000000    -0.499459   
O234     O      0.362050000000     0.806230000000     0.939930000000    -0.478367   
O235     O      0.336460000000     0.831970000000     0.889950000000    -0.477454   
O236     O      0.375850000000     0.827850000000     0.884130000000    -0.477439   
O237     O      0.353960000000     0.777500000000     0.912090000000    -0.477934   
O238     O      0.390220000000     0.816560000000     0.909750000000    -0.497143   
O239     O      0.323970000000     0.806330000000     0.903130000000    -0.49763    
O240     O      0.364370000000     0.786940000000     0.883960000000    -0.499166   
O241     O      0.418060000000     0.596280000000     0.858630000000    -0.494357   
O242     O      0.427440000000     0.600260000000     0.828810000000    -0.476751   
O243     O      0.370270000000     0.576410000000     0.848200000000    -0.483232   
O244     O      0.380550000000     0.616830000000     0.858520000000    -0.482014   
O245     O      0.400610000000     0.591650000000     0.801860000000    -0.476904   
O246     O      0.389330000000     0.629480000000     0.831100000000    -0.499084   
O247     O      0.397960000000     0.563370000000     0.840490000000    -0.499853   
O248     O      0.370890000000     0.597510000000     0.810790000000    -0.494153   
O249     O      0.852070000000     0.157840000000     0.884730000000    -0.498225   
O250     O      0.859820000000     0.166840000000     0.913870000000    -0.480353   
O251     O      0.835570000000     0.111050000000     0.892040000000    -0.48268    
O252     O      0.875360000000     0.120430000000     0.883840000000    -0.481208   
O253     O      0.851900000000     0.139260000000     0.941210000000    -0.477883   
O254     O      0.888340000000     0.128670000000     0.911300000000    -0.498176   
O255     O      0.821590000000     0.135070000000     0.907100000000    -0.500855   
O256     O      0.857000000000     0.109650000000     0.931340000000    -0.49451    
O257     O      0.606050000000     0.658480000000     0.883960000000    -0.499974   
O258     O      0.605950000000     0.669530000000     0.913480000000    -0.479065   
O259     O      0.586460000000     0.618450000000     0.888110000000    -0.480055   
O260     O      0.626960000000     0.614500000000     0.891520000000    -0.479647   
O261     O      0.607480000000     0.641500000000     0.942320000000    -0.477725   
O262     O      0.640470000000     0.638540000000     0.906740000000    -0.499189   
O263     O      0.573370000000     0.634590000000     0.911860000000    -0.500875   
O264     O      0.609740000000     0.611740000000     0.932050000000    -0.499351   
O265     O      0.861140000000     0.828780000000     0.555040000000    -0.498036   
O266     O      0.852910000000     0.799740000000     0.546170000000    -0.48004    
O267     O      0.877700000000     0.822160000000     0.601440000000    -0.481776   
O268     O      0.837980000000     0.829800000000     0.592750000000    -0.480717   
O269     O      0.861580000000     0.772330000000     0.574050000000    -0.478216   
O270     O      0.824850000000     0.802510000000     0.584250000000    -0.497755   
O271     O      0.891630000000     0.806240000000     0.577980000000    -0.50024    
O272     O      0.856530000000     0.782470000000     0.603540000000    -0.494633   
O273     O      0.872380000000     0.588460000000     0.679850000000    -0.499434   
O274     O      0.900730000000     0.597480000000     0.690060000000    -0.476763   
O275     O      0.874160000000     0.574460000000     0.639650000000    -0.476869   
O276     O      0.879080000000     0.614270000000     0.634990000000    -0.477601   
O277     O      0.929400000000     0.590650000000     0.661560000000    -0.477519   
O278     O      0.892430000000     0.627570000000     0.660210000000    -0.497924   
O279     O      0.899380000000     0.560830000000     0.652760000000    -0.497691   
O280     O      0.919470000000     0.599770000000     0.633140000000    -0.499291   
O281     O      0.840450000000     0.533680000000     0.875000000000    -0.499898   
O282     O      0.812560000000     0.525220000000     0.863400000000    -0.482862   
O283     O      0.836030000000     0.579670000000     0.888180000000    -0.479164   
O284     O      0.842740000000     0.570950000000     0.848840000000    -0.481598   
O285     O      0.784910000000     0.553150000000     0.871430000000    -0.477395   
O286     O      0.815350000000     0.563310000000     0.835490000000    -0.497044   
O287     O      0.815320000000     0.560530000000     0.902110000000    -0.49841    
O288     O      0.794860000000     0.582650000000     0.866400000000    -0.493026   
O289     O      0.869920000000     0.352880000000     0.810190000000    -0.499263   
O290     O      0.897750000000     0.341970000000     0.800070000000    -0.477265   
O291     O      0.870910000000     0.365500000000     0.850250000000    -0.477073   
O292     O      0.876610000000     0.325840000000     0.855510000000    -0.477991   
O293     O      0.926360000000     0.349530000000     0.828160000000    -0.477345   
O294     O      0.888610000000     0.312550000000     0.829520000000    -0.498299   
O295     O      0.896990000000     0.378800000000     0.838740000000    -0.497086   
O296     O      0.916900000000     0.339030000000     0.856270000000    -0.49908    
O297     O      0.849610000000     0.278530000000     0.389380000000    -0.490896   
O298     O      0.866770000000     0.273410000000     0.415230000000    -0.484818   
O299     O      0.875330000000     0.317410000000     0.383540000000    -0.481962   
O300     O      0.837350000000     0.328390000000     0.393520000000    -0.480867   
O301     O      0.851230000000     0.299680000000     0.442180000000    -0.482098   
O302     O      0.823010000000     0.304100000000     0.407430000000    -0.494539   
O303     O      0.889640000000     0.310710000000     0.410700000000    -0.497181   
O304     O      0.858970000000     0.328780000000     0.433150000000    -0.494577   
O305     O      0.794550000000     0.358710000000     0.621790000000    -0.496355   
O306     O      0.784330000000     0.388360000000     0.618010000000    -0.478463   
O307     O      0.841440000000     0.369120000000     0.640950000000    -0.481434   
O308     O      0.833670000000     0.360470000000     0.600970000000    -0.480986   
O309     O      0.812260000000     0.416340000000     0.625260000000    -0.479854   
O310     O      0.818620000000     0.384630000000     0.587390000000    -0.500346   
O311     O      0.814440000000     0.378740000000     0.654180000000    -0.499257   
O312     O      0.841360000000     0.406620000000     0.617910000000    -0.498656   
O313     O      0.294780000000     0.858350000000     0.120520000000    -0.496231   
O314     O      0.285560000000     0.888270000000     0.116490000000    -0.476843   
O315     O      0.341730000000     0.867310000000     0.141020000000    -0.481692   
O316     O      0.332750000000     0.858470000000     0.100210000000    -0.482332   
O317     O      0.312870000000     0.915120000000     0.124730000000    -0.477506   
O318     O      0.324040000000     0.886040000000     0.087740000000    -0.500635   
O319     O      0.314420000000     0.876860000000     0.153670000000    -0.499898   
O320     O      0.342680000000     0.905290000000     0.121230000000    -0.496117   
O321     O      0.918200000000     0.090330000000     0.356260000000    -0.492278   
O322     O      0.928310000000     0.096130000000     0.326910000000    -0.477136   
O323     O      0.870800000000     0.073810000000     0.345470000000    -0.480115   
O324     O      0.876280000000     0.113230000000     0.352580000000    -0.47799    
O325     O      0.900690000000     0.088380000000     0.298860000000    -0.482757   
O326     O      0.898870000000     0.126750000000     0.335330000000    -0.497146   
O327     O      0.897670000000     0.060130000000     0.336180000000    -0.49619    
O328     O      0.872860000000     0.100280000000     0.307500000000    -0.500494   
O329     O      0.091730000000     0.089820000000     0.810120000000    -0.500019   
O330     O      0.063300000000     0.099260000000     0.800310000000    -0.477629   
O331     O      0.090530000000     0.076270000000     0.850260000000    -0.477957   
O332     O      0.085120000000     0.116480000000     0.855200000000    -0.478085   
O333     O      0.035110000000     0.092590000000     0.828740000000    -0.477248   
O334     O      0.072110000000     0.129330000000     0.829590000000    -0.499505   
O335     O      0.064790000000     0.062980000000     0.838010000000    -0.499127   
O336     O      0.044980000000     0.102380000000     0.857020000000    -0.499438   
O337     O      0.098780000000     0.156580000000     0.384690000000    -0.50026    
O338     O      0.107980000000     0.167050000000     0.412930000000    -0.478264   
O339     O      0.085870000000     0.115530000000     0.387060000000    -0.477687   
O340     O      0.125740000000     0.112450000000     0.390810000000    -0.477207   
O341     O      0.101720000000     0.138390000000     0.441660000000    -0.477776   
O342     O      0.138640000000     0.137480000000     0.404910000000    -0.498308   
O343     O      0.072160000000     0.129240000000     0.411990000000    -0.498272   
O344     O      0.112010000000     0.110280000000     0.431580000000    -0.500335   
O345     O      0.118860000000     0.033970000000     0.619850000000    -0.494952   
O346     O      0.148670000000     0.024910000000     0.624840000000    -0.47739    
O347     O      0.128670000000     0.082020000000     0.600650000000    -0.483085   
O348     O      0.118270000000     0.071450000000     0.640660000000    -0.482192   
O349     O      0.175390000000     0.051940000000     0.615720000000    -0.476908   
O350     O      0.145820000000     0.063240000000     0.653560000000    -0.498652   
O351     O      0.137040000000     0.054610000000     0.587410000000    -0.499357   
O352     O      0.166140000000     0.081520000000     0.621890000000    -0.494424   
O353     O      0.796570000000     0.082410000000     0.113410000000    -0.499536   
O354     O      0.786530000000     0.054600000000     0.124090000000    -0.47778    
O355     O      0.836830000000     0.080370000000     0.099920000000    -0.477854   
O356     O      0.842240000000     0.075540000000     0.139710000000    -0.477874   
O357     O      0.814540000000     0.025720000000     0.116880000000    -0.477321   
O358     O      0.816080000000     0.064460000000     0.153240000000    -0.497882   
O359     O      0.823900000000     0.054740000000     0.087000000000    -0.498652   
O360     O      0.842800000000     0.035230000000     0.126880000000    -0.499483   
O361     O      0.605140000000     0.109330000000     0.055500000000    -0.499372   
O362     O      0.611630000000     0.138800000000     0.046730000000    -0.479695   
O363     O      0.587060000000     0.115590000000     0.101330000000    -0.481274   
O364     O      0.627240000000     0.108990000000     0.093590000000    -0.481217   
O365     O      0.603730000000     0.165990000000     0.075120000000    -0.478389   
O366     O      0.640030000000     0.136370000000     0.084980000000    -0.498908   
O367     O      0.573400000000     0.131600000000     0.077900000000    -0.500397   
O368     O      0.607010000000     0.155400000000     0.104630000000    -0.495644   
O369     O      0.341490000000     0.035490000000     0.369630000000    -0.493725   
O370     O      0.311880000000     0.026940000000     0.363200000000    -0.47651    
O371     O      0.331630000000     0.083850000000     0.388210000000    -0.482343   
O372     O      0.342860000000     0.072480000000     0.348160000000    -0.483667   
O373     O      0.285220000000     0.053890000000     0.372130000000    -0.477034   
O374     O      0.315080000000     0.065800000000     0.335020000000    -0.498587   
O375     O      0.323280000000     0.056420000000     0.401080000000    -0.499499   
O376     O      0.294370000000     0.083620000000     0.367310000000    -0.493977   
O377     O      0.371050000000     0.091990000000     0.179060000000    -0.49789    
O378     O      0.400470000000     0.096370000000     0.189460000000    -0.476271   
O379     O      0.373970000000     0.073880000000     0.139780000000    -0.479304   
O380     O      0.379490000000     0.114580000000     0.133670000000    -0.480987   
O381     O      0.428880000000     0.095080000000     0.161620000000    -0.479347   
O382     O      0.393640000000     0.127980000000     0.158330000000    -0.503724   
O383     O      0.397840000000     0.060860000000     0.155800000000    -0.499604   
O384     O      0.418940000000     0.093130000000     0.131810000000    -0.499464   


