data_structure

_audit_creation_method RASPA-1.0
_audit_creation_date 2023-5-22
_audit_author_name 'Poobodin Mano'

_cell_length_a    46.7112
_cell_length_b    46.3836
_cell_length_c    36.5669
_cell_angle_alpha 90.0004
_cell_angle_beta  90
_cell_angle_gamma 89.9998
_cell_volume      79227.1

_symmetry_cell_setting          triclinic
_symmetry_space_group_name_Hall 'P 1'
_symmetry_space_group_name_H-M  'P 1'
_symmetry_Int_Tables_number     1

_symmetry_equiv_pos_as_xyz 'x,y,z'

loop_
_atom_site_label
_atom_site_type_symbol
_atom_site_fract_x
_atom_site_fract_y
_atom_site_fract_z
_atom_site_charge
C1       C      0.776110000000     0.795790000000     0.379520000000     0.354848   
C2       C      0.763850000000     0.782310000000     0.261800000000     0.364883   
C3       C      0.785890000000     0.870560000000     0.302060000000     0.35498    
C4       C      0.850920000000     0.810670000000     0.311690000000     0.365073   
C5       C      0.767730000000     0.802340000000     0.650210000000     0.354141   
C6       C      0.752940000000     0.789140000000     0.767460000000     0.364986   
C7       C      0.841170000000     0.812420000000     0.729090000000     0.355106   
C8       C      0.780870000000     0.877150000000     0.719720000000     0.364486   
C9       C      0.623200000000     0.592040000000     0.018420000000     0.356245   
C10      C      0.644490000000     0.678010000000     0.959870000000     0.356975   
C11      C      0.561810000000     0.655050000000     0.015850000000     0.356537   
C12      C      0.648770000000     0.675330000000     0.071780000000     0.35709    
C13      C      0.782210000000     0.155070000000     0.384820000000     0.356853   
C14      C      0.763420000000     0.175960000000     0.266030000000     0.364425   
C15      C      0.851120000000     0.156740000000     0.304540000000     0.352024   
C16      C      0.789780000000     0.087020000000     0.304550000000     0.363822   
C17      C      0.785750000000     0.163510000000     0.657730000000     0.356551   
C18      C      0.765810000000     0.181810000000     0.778000000000     0.36334    
C19      C      0.791360000000     0.094280000000     0.727060000000     0.359665   
C20      C      0.852160000000     0.164800000000     0.747320000000     0.353034   
C21      C      0.567070000000     0.310690000000     0.024800000000     0.35824    
C22      C      0.651390000000     0.289210000000     0.967970000000     0.359252   
C23      C      0.627950000000     0.374510000000     0.021940000000     0.357336   
C24      C      0.651870000000     0.290810000000     0.080320000000     0.357829   
C25      C      0.133840000000     0.817200000000     0.383190000000     0.355149   
C26      C      0.154260000000     0.796990000000     0.262800000000     0.36288    
C27      C      0.066580000000     0.822720000000     0.310980000000     0.359211   
C28      C      0.138420000000     0.883550000000     0.294270000000     0.351863   
C29      C      0.125020000000     0.810640000000     0.656420000000     0.354208   
C30      C      0.144240000000     0.790360000000     0.775770000000     0.365638   
C31      C      0.124970000000     0.878780000000     0.739560000000     0.351026   
C32      C      0.056260000000     0.816940000000     0.733660000000     0.364006   
C33      C      0.345800000000     0.659020000000     0.018040000000     0.357554   
C34      C      0.261670000000     0.681180000000     0.961160000000     0.35795    
C35      C      0.283250000000     0.596460000000     0.017490000000     0.358417   
C36      C      0.261260000000     0.681250000000     0.073650000000     0.359296   
C37      C      0.134350000000     0.169460000000     0.387190000000     0.353019   
C38      C      0.153500000000     0.187200000000     0.269240000000     0.361471   
C39      C      0.138110000000     0.098390000000     0.307340000000     0.359233   
C40      C      0.066110000000     0.158450000000     0.309320000000     0.363582   
C41      C      0.134170000000     0.163520000000     0.660350000000     0.355259   
C42      C      0.154100000000     0.183960000000     0.778560000000     0.362577   
C43      C      0.066070000000     0.166610000000     0.742040000000     0.352218   
C44      C      0.126240000000     0.095110000000     0.739940000000     0.366395   
C45      C      0.287990000000     0.379180000000     0.022700000000     0.357315   
C46      C      0.266200000000     0.296350000000     0.966000000000     0.359476   
C47      C      0.351380000000     0.314720000000     0.022080000000     0.361511   
C48      C      0.267810000000     0.293900000000     0.078940000000     0.360011   
C49      C      0.206070000000     0.271970000000     0.904050000000    -0.06453    
C50      C      0.219780000000     0.251270000000     0.882080000000     0.0224706  
C51      C      0.249270000000     0.246470000000     0.886880000000    -0.0642082  
C52      C      0.264520000000     0.261520000000     0.913710000000     0.0216939  
C53      C      0.250590000000     0.281680000000     0.936200000000    -0.0982355  
C54      C      0.221300000000     0.287000000000     0.930810000000     0.0219787  
C55      C      0.203110000000     0.234100000000     0.855200000000     0.0233254  
C56      C      0.175930000000     0.223390000000     0.864590000000    -0.0656305  
C57      C      0.160150000000     0.207090000000     0.839660000000     0.0230507  
C58      C      0.171150000000     0.201100000000     0.804730000000    -0.103902   
C59      C      0.198330000000     0.211690000000     0.795240000000     0.0229639  
C60      C      0.214190000000     0.228010000000     0.820270000000    -0.0655035  
C61      C      0.224580000000     0.279560000000     0.164720000000    -0.0646584  
C62      C      0.221030000000     0.249510000000     0.163000000000     0.0227094  
C63      C      0.233830000000     0.234150000000     0.134210000000    -0.0650272  
C64      C      0.249530000000     0.248560000000     0.107360000000     0.0224145  
C65      C      0.252500000000     0.278680000000     0.108540000000    -0.0995555  
C66      C      0.240040000000     0.294050000000     0.137580000000     0.0220078  
C67      C      0.203390000000     0.234170000000     0.190500000000     0.0231487  
C68      C      0.207070000000     0.239330000000     0.228090000000    -0.0653297  
C69      C      0.190800000000     0.224150000000     0.253840000000     0.0223383  
C70      C      0.170320000000     0.203880000000     0.242390000000    -0.102576   
C71      C      0.166330000000     0.199140000000     0.204790000000     0.0234818  
C72      C      0.182790000000     0.214010000000     0.179140000000    -0.0656847  
C73      C      0.133400000000     0.197740000000     0.566250000000    -0.0640618  
C74      C      0.143540000000     0.175030000000     0.544280000000     0.0225971  
C75      C      0.152290000000     0.149290000000     0.561240000000    -0.0639065  
C76      C      0.150040000000     0.145960000000     0.599080000000     0.0208043  
C77      C      0.139020000000     0.168290000000     0.620860000000    -0.0963514  
C78      C      0.131220000000     0.194430000000     0.604200000000     0.0211321  
C79      C      0.143090000000     0.177140000000     0.503710000000     0.0223561  
C80      C      0.119220000000     0.188970000000     0.485700000000    -0.0635139  
C81      C      0.117000000000     0.187630000000     0.447620000000     0.0199444  
C82      C      0.138590000000     0.174460000000     0.426740000000    -0.0952894  
C83      C      0.163110000000     0.163940000000     0.444520000000     0.0210632  
C84      C      0.165330000000     0.165250000000     0.482620000000    -0.0639443  
C85      C      0.273190000000     0.519770000000     0.050510000000    -0.064479   
C86      C      0.281380000000     0.503750000000     0.019570000000     0.0224134  
C87      C      0.289410000000     0.518580000000     0.987630000000    -0.0641245  
C88      C      0.289610000000     0.548700000000     0.986800000000     0.0223191  
C89      C      0.281820000000     0.564640000000     0.017900000000    -0.0994826  
C90      C      0.273420000000     0.549890000000     0.049680000000     0.021951   
C91      C      0.282180000000     0.471730000000     0.020810000000     0.0223312  
C92      C      0.292800000000     0.457340000000     0.051830000000    -0.0644556  
C93      C      0.294410000000     0.427260000000     0.052590000000     0.0217874  
C94      C      0.285470000000     0.410920000000     0.022340000000    -0.099359   
C95      C      0.274560000000     0.425220000000     0.991480000000     0.0221177  
C96      C      0.272930000000     0.455300000000     0.990720000000    -0.0639818  
C97      C      0.150180000000     0.955600000000     0.725210000000    -0.0632339  
C98      C      0.131770000000     0.970830000000     0.748680000000     0.0216968  
C99      C      0.112780000000     0.955350000000     0.771070000000    -0.0639792  
C100     C      0.111410000000     0.925330000000     0.769050000000     0.0207655  
C101     C      0.128870000000     0.910160000000     0.744390000000    -0.0947433  
C102     C      0.148650000000     0.925510000000     0.722960000000     0.0191234  
C103     C      0.130780000000     0.002780000000     0.747960000000     0.0237906  
C104     C      0.156000000000     0.019320000000     0.748600000000    -0.0656091  
C105     C      0.154650000000     0.049460000000     0.746780000000     0.0234477  
C106     C      0.128080000000     0.063470000000     0.743710000000    -0.101745   
C107     C      0.102930000000     0.046890000000     0.743220000000     0.0241806  
C108     C      0.104260000000     0.016910000000     0.745490000000    -0.0657938  
C109     C      0.188700000000     0.730590000000     0.817940000000    -0.0657987  
C110     C      0.195710000000     0.742490000000     0.852170000000     0.023585   
C111     C      0.185280000000     0.770030000000     0.861110000000    -0.0659718  
C112     C      0.168400000000     0.785400000000     0.836350000000     0.0236655  
C113     C      0.161590000000     0.773620000000     0.802060000000    -0.1052     
C114     C      0.171860000000     0.746040000000     0.793080000000     0.0236271  
C115     C      0.213650000000     0.726300000000     0.878700000000     0.0222491  
C116     C      0.209070000000     0.696730000000     0.884810000000    -0.0641618  
C117     C      0.225040000000     0.681910000000     0.911140000000     0.0214701  
C118     C      0.245980000000     0.696340000000     0.931800000000    -0.0986456  
C119     C      0.251030000000     0.725710000000     0.925120000000     0.021541   
C120     C      0.235030000000     0.740540000000     0.898890000000    -0.0643772  
C121     C      0.145150000000     0.025130000000     0.262570000000    -0.0649767  
C122     C      0.149350000000     0.007160000000     0.293050000000     0.023172   
C123     C      0.151660000000     0.019720000000     0.327920000000    -0.0646657  
C124     C      0.148800000000     0.049480000000     0.332390000000     0.0224003  
C125     C      0.143760000000     0.067340000000     0.302070000000    -0.0992374  
C126     C      0.142540000000     0.054980000000     0.267020000000     0.021904   
C127     C      0.149220000000     0.975300000000     0.289160000000     0.0220796  
C128     C      0.128090000000     0.961660000000     0.267950000000    -0.0634551  
C129     C      0.125420000000     0.931650000000     0.268200000000     0.0205185  
C130     C      0.143940000000     0.914690000000     0.289480000000    -0.0953874  
C131     C      0.166090000000     0.928200000000     0.309030000000     0.02033    
C132     C      0.168640000000     0.958230000000     0.308980000000    -0.0639272  
C133     C      0.174480000000     0.759010000000     0.174980000000    -0.0656233  
C134     C      0.200600000000     0.745940000000     0.184440000000     0.0232566  
C135     C      0.211450000000     0.749900000000     0.219950000000    -0.0653981  
C136     C      0.196380000000     0.766420000000     0.245520000000     0.0229084  
C137     C      0.170300000000     0.779500000000     0.235960000000    -0.103335   
C138     C      0.159540000000     0.775670000000     0.200430000000     0.0233812  
C139     C      0.216460000000     0.728440000000     0.157140000000     0.0226005  
C140     C      0.201830000000     0.708780000000     0.134650000000    -0.0647233  
C141     C      0.216500000000     0.693060000000     0.107990000000     0.0219936  
C142     C      0.246100000000     0.696800000000     0.103120000000    -0.0995264  
C143     C      0.260840000000     0.716140000000     0.125920000000     0.0218908  
C144     C      0.246180000000     0.731740000000     0.152770000000    -0.0645638  
C145     C      0.158870000000     0.814560000000     0.562500000000    -0.0640448  
C146     C      0.136770000000     0.803840000000     0.540170000000     0.0223753  
C147     C      0.111730000000     0.793320000000     0.556830000000    -0.0639146  
C148     C      0.108380000000     0.794610000000     0.594750000000     0.0207597  
C149     C      0.129990000000     0.806430000000     0.616870000000    -0.0973048  
C150     C      0.155520000000     0.815830000000     0.600470000000     0.0209852  
C151     C      0.138740000000     0.805700000000     0.499660000000     0.0226311  
C152     C      0.149560000000     0.830770000000     0.483070000000    -0.064249   
C153     C      0.148770000000     0.834010000000     0.445130000000     0.0214184  
C154     C      0.137170000000     0.812270000000     0.422880000000    -0.0982808  
C155     C      0.127310000000     0.786730000000     0.439230000000     0.0207497  
C156     C      0.128050000000     0.783490000000     0.477270000000    -0.0642907  
C157     C      0.427110000000     0.299130000000     0.053190000000    -0.0650124  
C158     C      0.443250000000     0.308620000000     0.023040000000     0.022777   
C159     C      0.428800000000     0.319500000000     0.992250000000    -0.0646336  
C160     C      0.398940000000     0.321170000000     0.991790000000     0.0232757  
C161     C      0.382880000000     0.312010000000     0.022110000000    -0.101644   
C162     C      0.397240000000     0.300800000000     0.052720000000     0.0227226  
C163     C      0.475050000000     0.307880000000     0.023970000000     0.0222482  
C164     C      0.489950000000     0.315950000000     0.055790000000    -0.0644464  
C165     C      0.519860000000     0.316420000000     0.056230000000     0.0218459  
C166     C      0.535500000000     0.308850000000     0.024870000000    -0.0993921  
C167     C      0.520680000000     0.300320000000     0.993250000000     0.0223205  
C168     C      0.490770000000     0.299840000000     0.992800000000    -0.0639911  
C169     C      0.929480000000     0.151250000000     0.772190000000    -0.0637455  
C170     C      0.943260000000     0.175100000000     0.756220000000     0.0225124  
C171     C      0.926450000000     0.196840000000     0.740140000000    -0.0639485  
C172     C      0.896650000000     0.194150000000     0.738660000000     0.0205794  
C173     C      0.883080000000     0.169680000000     0.753220000000    -0.0962256  
C174     C      0.899720000000     0.148600000000     0.770740000000     0.0208977  
C175     C      0.975050000000     0.176090000000     0.754140000000     0.0223716  
C176     C      0.991900000000     0.166280000000     0.783480000000    -0.0639468  
C177     C      0.021600000000     0.164110000000     0.779940000000     0.0208993  
C178     C      0.035110000000     0.171800000000     0.747030000000    -0.0953169  
C179     C      0.018480000000     0.182790000000     0.718250000000     0.0197851  
C180     C      0.988750000000     0.184870000000     0.721730000000    -0.0634076  
C181     C      0.701620000000     0.273950000000     0.889000000000    -0.0645208  
C182     C      0.698170000000     0.244050000000     0.884450000000     0.0226101  
C183     C      0.678580000000     0.229340000000     0.906880000000    -0.0647055  
C184     C      0.663030000000     0.244130000000     0.933590000000     0.0220131  
C185     C      0.666880000000     0.273910000000     0.938570000000    -0.0994862  
C186     C      0.686190000000     0.288720000000     0.915880000000     0.0218868  
C187     C      0.715370000000     0.228110000000     0.856950000000     0.0233178  
C188     C      0.719320000000     0.239260000000     0.821560000000    -0.0654284  
C189     C      0.735620000000     0.224180000000     0.795800000000     0.0229684  
C190     C      0.748460000000     0.197770000000     0.805040000000    -0.103396   
C191     C      0.744600000000     0.186680000000     0.840440000000     0.0233769  
C192     C      0.728170000000     0.201650000000     0.866080000000    -0.0655667  
C193     C      0.927710000000     0.146810000000     0.273820000000    -0.0640898  
C194     C      0.942710000000     0.163680000000     0.299350000000     0.0219501  
C195     C      0.927170000000     0.180010000000     0.324940000000    -0.0634103  
C196     C      0.897260000000     0.178500000000     0.325960000000     0.0194431  
C197     C      0.882380000000     0.160810000000     0.301230000000    -0.095019   
C198     C      0.897860000000     0.145460000000     0.274680000000     0.0210943  
C199     C      0.974430000000     0.162790000000     0.300650000000     0.0234622  
C200     C      0.988760000000     0.136200000000     0.298590000000    -0.0653005  
C201     C      0.018530000000     0.134910000000     0.301200000000     0.0229316  
C202     C      0.034680000000     0.160210000000     0.305650000000    -0.100841   
C203     C      0.020460000000     0.186880000000     0.307250000000     0.0233124  
C204     C      0.990570000000     0.188140000000     0.304980000000    -0.0653772  
C205     C      0.702570000000     0.218070000000     0.223090000000    -0.0656073  
C206     C      0.714850000000     0.226990000000     0.189840000000     0.0234135  
C207     C      0.743190000000     0.218860000000     0.181950000000    -0.0657132  
C208     C      0.758880000000     0.202250000000     0.206700000000     0.0232735  
C209     C      0.746610000000     0.193390000000     0.239910000000    -0.10442    
C210     C      0.718310000000     0.201460000000     0.247900000000     0.0235452  
C211     C      0.698180000000     0.244360000000     0.163150000000     0.0223405  
C212     C      0.669370000000     0.237740000000     0.155750000000    -0.0642977  
C213     C      0.654140000000     0.253210000000     0.129320000000     0.0215905  
C214     C      0.667380000000     0.275630000000     0.109790000000    -0.098913   
C215     C      0.695950000000     0.282680000000     0.117710000000     0.0215394  
C216     C      0.711180000000     0.267220000000     0.144110000000    -0.0644248  
C217     C      0.753270000000     0.156650000000     0.563310000000    -0.0644895  
C218     C      0.774760000000     0.168950000000     0.541330000000     0.0226555  
C219     C      0.798710000000     0.181480000000     0.558340000000    -0.0642904  
C220     C      0.801700000000     0.180630000000     0.596310000000     0.0216884  
C221     C      0.780800000000     0.167290000000     0.618130000000    -0.0986431  
C222     C      0.756230000000     0.155890000000     0.601360000000     0.0212052  
C223     C      0.773520000000     0.166710000000     0.500840000000     0.0227101  
C224     C      0.765330000000     0.140650000000     0.484220000000    -0.0643533  
C225     C      0.767270000000     0.137250000000     0.446360000000     0.021469   
C226     C      0.777370000000     0.159830000000     0.424270000000    -0.0982003  
C227     C      0.784430000000     0.186300000000     0.440620000000     0.0217754  
C228     C      0.782570000000     0.189690000000     0.478550000000    -0.0644944  
C229     C      0.485670000000     0.666920000000     0.047960000000    -0.0642362  
C230     C      0.469790000000     0.660090000000     0.016440000000     0.0222649  
C231     C      0.484590000000     0.652140000000     0.984470000000    -0.0638274  
C232     C      0.514490000000     0.650800000000     0.984150000000     0.0218193  
C233     C      0.530250000000     0.657260000000     0.015820000000    -0.098985   
C234     C      0.515560000000     0.665450000000     0.047670000000     0.0216449  
C235     C      0.437940000000     0.660650000000     0.017140000000     0.0223076  
C236     C      0.422910000000     0.650580000000     0.047940000000    -0.0643763  
C237     C      0.393000000000     0.650450000000     0.048380000000     0.021775   
C238     C      0.377420000000     0.660250000000     0.017990000000    -0.0992126  
C239     C      0.392330000000     0.670550000000     0.987300000000     0.021978   
C240     C      0.422270000000     0.670790000000     0.986900000000    -0.0637735  
C241     C      0.620040000000     0.514820000000     0.051840000000    -0.0641712  
C242     C      0.627710000000     0.499370000000     0.020200000000     0.022244   
C243     C      0.634270000000     0.514800000000     0.988170000000    -0.0637488  
C244     C      0.632890000000     0.544890000000     0.987660000000     0.0219879  
C245     C      0.625050000000     0.560250000000     0.019210000000    -0.0986788  
C246     C      0.618780000000     0.544940000000     0.051360000000     0.0213235  
C247     C      0.628420000000     0.467290000000     0.020430000000     0.0223804  
C248     C      0.638790000000     0.452130000000     0.051010000000    -0.0642315  
C249     C      0.638860000000     0.421980000000     0.051420000000     0.0216296  
C250     C      0.628670000000     0.406350000000     0.021210000000    -0.0991691  
C251     C      0.618570000000     0.421430000000     0.990510000000     0.0222454  
C252     C      0.618380000000     0.451540000000     0.990150000000    -0.0640458  
C253     C      0.916720000000     0.829900000000     0.758680000000    -0.0642834  
C254     C      0.932800000000     0.809600000000     0.738890000000     0.0221534  
C255     C      0.918380000000     0.789040000000     0.717500000000    -0.0637099  
C256     C      0.888490000000     0.789510000000     0.714840000000     0.0205735  
C257     C      0.872510000000     0.810360000000     0.733850000000    -0.0967557  
C258     C      0.886890000000     0.830200000000     0.756320000000     0.0211721  
C259     C      0.964500000000     0.811150000000     0.738810000000     0.0233924  
C260     C      0.978130000000     0.837790000000     0.733360000000    -0.0654214  
C261     C      0.007910000000     0.839520000000     0.731930000000     0.0237072  
C262     C      0.024790000000     0.814710000000     0.736300000000    -0.0995635  
C263     C      0.011270000000     0.788060000000     0.742290000000     0.0225761  
C264     C      0.981330000000     0.786260000000     0.743240000000    -0.0650256  
C265     C      0.792030000000     0.954810000000     0.692040000000    -0.0651039  
C266     C      0.781560000000     0.969880000000     0.722600000000     0.0230525  
C267     C      0.769680000000     0.954110000000     0.751780000000    -0.0644917  
C268     C      0.768940000000     0.923940000000     0.750710000000     0.022394   
C269     C      0.780100000000     0.908990000000     0.720490000000    -0.0990446  
C270     C      0.791380000000     0.924760000000     0.691040000000     0.0233787  
C271     C      0.783860000000     0.001830000000     0.724220000000     0.0226936  
C272     C      0.808720000000     0.015660000000     0.711440000000    -0.0645512  
C273     C      0.811020000000     0.045640000000     0.712390000000     0.022231   
C274     C      0.788590000000     0.062550000000     0.726260000000    -0.0982538  
C275     C      0.763790000000     0.048850000000     0.739330000000     0.021633   
C276     C      0.761450000000     0.018760000000     0.738340000000    -0.0641878  
C277     C      0.734850000000     0.740930000000     0.847560000000    -0.0657803  
C278     C      0.704750000000     0.741010000000     0.847030000000     0.0235586  
C279     C      0.690560000000     0.757240000000     0.820040000000    -0.065657   
C280     C      0.706160000000     0.772930000000     0.794130000000     0.0234525  
C281     C      0.736230000000     0.772700000000     0.794710000000    -0.10452    
C282     C      0.750390000000     0.756550000000     0.821690000000     0.0237586  
C283     C      0.688380000000     0.724350000000     0.874780000000     0.022328   
C284     C      0.697710000000     0.696830000000     0.885670000000    -0.0643387  
C285     C      0.683190000000     0.681650000000     0.912940000000     0.0216583  
C286     C      0.658960000000     0.693590000000     0.929870000000    -0.0990691  
C287     C      0.649220000000     0.720830000000     0.918550000000     0.0213011  
C288     C      0.663790000000     0.736060000000     0.891280000000    -0.0641172  
C289     C      0.928000000000     0.799360000000     0.282200000000    -0.0645617  
C290     C      0.943020000000     0.812540000000     0.311070000000     0.0231764  
C291     C      0.927440000000     0.824010000000     0.340550000000    -0.0652685  
C292     C      0.897600000000     0.822990000000     0.340810000000     0.0236128  
C293     C      0.882560000000     0.810380000000     0.311660000000    -0.0994413  
C294     C      0.898030000000     0.798300000000     0.282490000000     0.0223809  
C295     C      0.974760000000     0.815020000000     0.310330000000     0.0225781  
C296     C      0.991970000000     0.791960000000     0.298430000000    -0.0642626  
C297     C      0.021850000000     0.794390000000     0.298540000000     0.0216021  
C298     C      0.035070000000     0.819920000000     0.310500000000    -0.0986763  
C299     C      0.017880000000     0.843020000000     0.322060000000     0.0219932  
C300     C      0.988100000000     0.840610000000     0.321930000000    -0.0644812  
C301     C      0.762500000000     0.948000000000     0.315930000000    -0.0637656  
C302     C      0.782540000000     0.962910000000     0.294370000000     0.0222288  
C303     C      0.802390000000     0.947100000000     0.273620000000    -0.0644014  
C304     C      0.802820000000     0.917030000000     0.275250000000     0.0212532  
C305     C      0.783560000000     0.902150000000     0.297910000000    -0.0964768  
C306     C      0.763100000000     0.917880000000     0.317820000000     0.0205752  
C307     C      0.784070000000     0.994830000000     0.295400000000     0.0233018  
C308     C      0.759250000000     0.011840000000     0.292510000000    -0.0651269  
C309     C      0.761030000000     0.041940000000     0.294690000000     0.0227104  
C310     C      0.787590000000     0.055440000000     0.300360000000    -0.100113   
C311     C      0.812340000000     0.038400000000     0.303080000000     0.0237516  
C312     C      0.810630000000     0.008460000000     0.300440000000    -0.065374   
C313     C      0.730340000000     0.720290000000     0.209560000000    -0.0656406  
C314     C      0.714790000000     0.734950000000     0.182360000000     0.0235572  
C315     C      0.715930000000     0.765230000000     0.181350000000    -0.0658568  
C316     C      0.731980000000     0.780500000000     0.207070000000     0.0237937  
C317     C      0.747340000000     0.765870000000     0.234370000000    -0.104734   
C318     C      0.746460000000     0.735610000000     0.235320000000     0.023423   
C319     C      0.697420000000     0.718890000000     0.155030000000     0.0222653  
C320     C      0.707840000000     0.693410000000     0.139000000000    -0.0641148  
C321     C      0.691880000000     0.678990000000     0.112290000000     0.0212115  
C322     C      0.665170000000     0.689780000000     0.101080000000    -0.0990878  
C323     C      0.654530000000     0.714950000000     0.117500000000     0.0215669  
C324     C      0.670450000000     0.729320000000     0.144200000000    -0.0642859  
C325     C      0.785370000000     0.773930000000     0.478210000000    -0.0638606  
C326     C      0.760450000000     0.785200000000     0.494430000000     0.0225544  
C327     C      0.739210000000     0.797070000000     0.471600000000    -0.0638895  
C328     C      0.743640000000     0.799330000000     0.433870000000     0.0209612  
C329     C      0.769260000000     0.789470000000     0.418140000000    -0.0975205  
C330     C      0.789650000000     0.775920000000     0.440510000000     0.0214278  
C331     C      0.758180000000     0.787240000000     0.535000000000     0.0225686  
C332     C      0.769940000000     0.765780000000     0.557740000000    -0.0639567  
C333     C      0.771890000000     0.770030000000     0.595540000000     0.0208935  
C334     C      0.761850000000     0.795670000000     0.611420000000    -0.0973655  
C335     C      0.748450000000     0.816270000000     0.589100000000     0.021307   
C336     C      0.746750000000     0.812180000000     0.551330000000    -0.0638211  
H1       H      0.260400000000     0.230500000000     0.870620000000     0.0483014  
H2       H      0.287090000000     0.256960000000     0.917260000000     0.0408064  
H3       H      0.210020000000     0.302530000000     0.947600000000     0.040759   
H4       H      0.183480000000     0.276510000000     0.900640000000     0.0481337  
H5       H      0.166980000000     0.227280000000     0.891460000000     0.0483868  
H6       H      0.139300000000     0.199140000000     0.847820000000     0.0402769  
H7       H      0.207310000000     0.207440000000     0.768470000000     0.0386014  
H8       H      0.234960000000     0.236140000000     0.812130000000     0.048429   
H9       H      0.231680000000     0.210930000000     0.132460000000     0.04859    
H10      H      0.258920000000     0.236140000000     0.085340000000     0.0398807  
H11      H      0.242030000000     0.317280000000     0.139180000000     0.0403069  
H12      H      0.214800000000     0.291920000000     0.186530000000     0.0485739  
H13      H      0.222890000000     0.254680000000     0.237560000000     0.0486681  
H14      H      0.194290000000     0.228240000000     0.282660000000     0.0384598  
H15      H      0.150700000000     0.183660000000     0.195140000000     0.0405968  
H16      H      0.179280000000     0.209870000000     0.150330000000     0.048719   
H17      H      0.159830000000     0.131220000000     0.545150000000     0.0483281  
H18      H      0.156240000000     0.125560000000     0.611130000000     0.0408121  
H19      H      0.122730000000     0.212050000000     0.620330000000     0.0413444  
H20      H      0.126760000000     0.217940000000     0.554040000000     0.0479881  
H21      H      0.101580000000     0.198030000000     0.501100000000     0.0481121  
H22      H      0.097840000000     0.195940000000     0.434690000000     0.0409489  
H23      H      0.180170000000     0.153790000000     0.429130000000     0.041665   
H24      H      0.184190000000     0.156340000000     0.495630000000     0.0480171  
H25      H      0.296180000000     0.506930000000     0.963470000000     0.0481795  
H26      H      0.296270000000     0.559480000000     0.961940000000     0.0404258  
H27      H      0.267210000000     0.561620000000     0.074040000000     0.0407844  
H28      H      0.266520000000     0.509010000000     0.075380000000     0.0483712  
H29      H      0.300450000000     0.469340000000     0.075280000000     0.0481334  
H30      H      0.302980000000     0.416830000000     0.076730000000     0.0404504  
H31      H      0.267400000000     0.413190000000     0.967800000000     0.0408479  
H32      H      0.264290000000     0.465690000000     0.966600000000     0.0483325  
H33      H      0.098570000000     0.966520000000     0.789720000000     0.0481716  
H34      H      0.096030000000     0.914100000000     0.786040000000     0.042134   
H35      H      0.162410000000     0.914360000000     0.703760000000     0.0409814  
H36      H      0.164900000000     0.967010000000     0.707480000000     0.0481932  
H37      H      0.176720000000     0.008940000000     0.750620000000     0.0485289  
H38      H      0.174370000000     0.061740000000     0.747150000000     0.0385482  
H39      H      0.082140000000     0.057070000000     0.740870000000     0.0401345  
H40      H      0.084490000000     0.004720000000     0.744460000000     0.0489937  
H41      H      0.189900000000     0.779620000000     0.887460000000     0.0484735  
H42      H      0.160750000000     0.806580000000     0.844100000000     0.0394294  
H43      H      0.166990000000     0.736450000000     0.766800000000     0.0384164  
H44      H      0.196590000000     0.709510000000     0.810140000000     0.0485032  
H45      H      0.192610000000     0.685210000000     0.869930000000     0.0483022  
H46      H      0.220650000000     0.659270000000     0.915730000000     0.0408658  
H47      H      0.267090000000     0.737390000000     0.940520000000     0.0405772  
H48      H      0.239380000000     0.763210000000     0.894440000000     0.0481075  
H49      H      0.154540000000     0.006420000000     0.351990000000     0.0488252  
H50      H      0.149870000000     0.058410000000     0.359730000000     0.0406155  
H51      H      0.138710000000     0.068240000000     0.243140000000     0.0399583  
H52      H      0.143500000000     0.016070000000     0.235350000000     0.0481073  
H53      H      0.112670000000     0.974240000000     0.252610000000     0.0483699  
H54      H      0.108150000000     0.921830000000     0.252840000000     0.0412463  
H55      H      0.180740000000     0.915680000000     0.325620000000     0.0422036  
H56      H      0.185350000000     0.968130000000     0.325210000000     0.048048   
H57      H      0.231420000000     0.739910000000     0.228100000000     0.0485889  
H58      H      0.205170000000     0.768990000000     0.272740000000     0.0388759  
H59      H      0.139500000000     0.785510000000     0.192250000000     0.0398686  
H60      H      0.165750000000     0.756660000000     0.147700000000     0.0484573  
H61      H      0.178990000000     0.705510000000     0.137690000000     0.0484651  
H62      H      0.204570000000     0.678270000000     0.090880000000     0.0403111  
H63      H      0.283660000000     0.719470000000     0.122770000000     0.040456   
H64      H      0.257990000000     0.746900000000     0.169500000000     0.0483223  
H65      H      0.094150000000     0.785230000000     0.540460000000     0.0480137  
H66      H      0.088450000000     0.787170000000     0.606610000000     0.0406707  
H67      H      0.172610000000     0.824910000000     0.616850000000     0.0413901  
H68      H      0.178590000000     0.822460000000     0.550540000000     0.0480205  
H69      H      0.157600000000     0.848450000000     0.499460000000     0.0483234  
H70      H      0.156550000000     0.853950000000     0.433330000000     0.0419302  
H71      H      0.118340000000     0.769570000000     0.422730000000     0.0396656  
H72      H      0.119860000000     0.763770000000     0.489200000000     0.0479297  
H73      H      0.440580000000     0.327360000000     0.968770000000     0.0483153  
H74      H      0.388450000000     0.329970000000     0.967840000000     0.0400594  
H75      H      0.385410000000     0.293480000000     0.076450000000     0.0400194  
H76      H      0.437570000000     0.290290000000     0.077130000000     0.048434   
H77      H      0.478500000000     0.322600000000     0.080120000000     0.0481361  
H78      H      0.530700000000     0.323150000000     0.080980000000     0.0404246  
H79      H      0.532180000000     0.294270000000     0.968700000000     0.0408838  
H80      H      0.479950000000     0.293130000000     0.968020000000     0.0483806  
H81      H      0.936360000000     0.215680000000     0.728080000000     0.0478797  
H82      H      0.884340000000     0.210800000000     0.725090000000     0.0414221  
H83      H      0.889880000000     0.129460000000     0.782150000000     0.0416935  
H84      H      0.941740000000     0.133930000000     0.784400000000     0.0482719  
H85      H      0.982080000000     0.159790000000     0.809020000000     0.0478262  
H86      H      0.033900000000     0.155760000000     0.802710000000     0.041798   
H87      H      0.028310000000     0.188860000000     0.692540000000     0.0409431  
H88      H      0.976430000000     0.192210000000     0.698440000000     0.0481256  
H89      H      0.675200000000     0.206380000000     0.903710000000     0.0485775  
H90      H      0.648260000000     0.232150000000     0.950620000000     0.0404996  
H91      H      0.689590000000     0.311670000000     0.919120000000     0.0405469  
H92      H      0.716730000000     0.285820000000     0.872330000000     0.0483489  
H93      H      0.709520000000     0.259490000000     0.813650000000     0.0486069  
H94      H      0.738210000000     0.233230000000     0.768700000000     0.0389694  
H95      H      0.754270000000     0.166390000000     0.848360000000     0.0399559  
H96      H      0.725820000000     0.192680000000     0.893270000000     0.0485374  
H97      H      0.938170000000     0.193050000000     0.345090000000     0.0481521  
H98      H      0.885870000000     0.190590000000     0.346720000000     0.0409519  
H99      H      0.886980000000     0.131710000000     0.255170000000     0.0419481  
H100     H      0.939110000000     0.134300000000     0.253480000000     0.0481624  
H101     H      0.976890000000     0.116260000000     0.295760000000     0.0486986  
H102     H      0.028890000000     0.114040000000     0.299900000000     0.0397577  
H103     H      0.032400000000     0.206720000000     0.310700000000     0.0398523  
H104     H      0.980090000000     0.208940000000     0.306460000000     0.0484788  
H105     H      0.753140000000     0.224970000000     0.156350000000     0.048304   
H106     H      0.780630000000     0.196300000000     0.199740000000     0.0395158  
H107     H      0.708320000000     0.195010000000     0.273360000000     0.038807   
H108     H      0.680880000000     0.224210000000     0.230130000000     0.0484237  
H109     H      0.658810000000     0.220100000000     0.169680000000     0.0482614  
H110     H      0.632150000000     0.247260000000     0.123750000000     0.0408031  
H111     H      0.706690000000     0.299930000000     0.103200000000     0.0405733  
H112     H      0.733200000000     0.273150000000     0.149570000000     0.0480486  
H113     H      0.815810000000     0.190820000000     0.542230000000     0.0484578  
H114     H      0.820870000000     0.189640000000     0.608470000000     0.041772   
H115     H      0.739720000000     0.145560000000     0.617520000000     0.0397251  
H116     H      0.734400000000     0.147130000000     0.551030000000     0.048011   
H117     H      0.758600000000     0.122420000000     0.500590000000     0.0482557  
H118     H      0.761630000000     0.116600000000     0.434530000000     0.0404559  
H119     H      0.792170000000     0.204130000000     0.424240000000     0.0411508  
H120     H      0.788700000000     0.210140000000     0.490510000000     0.0481965  
H121     H      0.473060000000     0.646360000000     0.959850000000     0.0480072  
H122     H      0.525240000000     0.644330000000     0.959210000000     0.0399869  
H123     H      0.527140000000     0.670720000000     0.072450000000     0.0413305  
H124     H      0.475030000000     0.673570000000     0.072880000000     0.04826    
H125     H      0.434240000000     0.642210000000     0.071500000000     0.0480163  
H126     H      0.382100000000     0.642250000000     0.072370000000     0.0403766  
H127     H      0.380880000000     0.678340000000     0.963510000000     0.0406439  
H128     H      0.433140000000     0.679080000000     0.962940000000     0.0482095  
H129     H      0.640700000000     0.503650000000     0.963480000000     0.0482763  
H130     H      0.637990000000     0.556120000000     0.962520000000     0.0415161  
H131     H      0.612600000000     0.556200000000     0.076080000000     0.0400381  
H132     H      0.614460000000     0.503640000000     0.076840000000     0.0479693  
H133     H      0.647070000000     0.463550000000     0.074580000000     0.0482301  
H134     H      0.646870000000     0.410930000000     0.075430000000     0.0407358  
H135     H      0.610440000000     0.409960000000     0.966880000000     0.0403677  
H136     H      0.609840000000     0.462470000000     0.966370000000     0.0480647  
H137     H      0.930260000000     0.773270000000     0.701770000000     0.0485071  
H138     H      0.877950000000     0.773920000000     0.697380000000     0.0412979  
H139     H      0.875160000000     0.846460000000     0.771390000000     0.0407738  
H140     H      0.927280000000     0.845820000000     0.775670000000     0.048346   
H141     H      0.965710000000     0.857270000000     0.729420000000     0.0487827  
H142     H      0.017710000000     0.860370000000     0.727280000000     0.0408062  
H143     H      0.023790000000     0.768580000000     0.745670000000     0.038787   
H144     H      0.971340000000     0.765470000000     0.747610000000     0.0486287  
H145     H      0.761630000000     0.965040000000     0.775840000000     0.0483649  
H146     H      0.760130000000     0.912320000000     0.773820000000     0.0396167  
H147     H      0.799930000000     0.913870000000     0.667220000000     0.0408265  
H148     H      0.800810000000     0.966270000000     0.668790000000     0.0481856  
H149     H      0.826610000000     0.003280000000     0.701020000000     0.0482111  
H150     H      0.830490000000     0.055550000000     0.702330000000     0.0412444  
H151     H      0.746140000000     0.061370000000     0.750170000000     0.0402394  
H152     H      0.741920000000     0.008800000000     0.748110000000     0.0481839  
H153     H      0.667410000000     0.757540000000     0.818660000000     0.0484511  
H154     H      0.694680000000     0.785150000000     0.773580000000     0.0387337  
H155     H      0.773560000000     0.756060000000     0.822950000000     0.0395066  
H156     H      0.746460000000     0.729070000000     0.868330000000     0.048476   
H157     H      0.716280000000     0.686970000000     0.873100000000     0.0481701  
H158     H      0.691100000000     0.660620000000     0.920940000000     0.0414365  
H159     H      0.630610000000     0.730590000000     0.931170000000     0.0402198  
H160     H      0.656200000000     0.757320000000     0.883790000000     0.0481814  
H161     H      0.938330000000     0.833820000000     0.363560000000     0.0482598  
H162     H      0.886310000000     0.832310000000     0.363830000000     0.0407955  
H163     H      0.886980000000     0.788440000000     0.259640000000     0.0393785  
H164     H      0.939360000000     0.790500000000     0.258950000000     0.04832    
H165     H      0.982370000000     0.771880000000     0.289620000000     0.0481896  
H166     H      0.034580000000     0.776230000000     0.289470000000     0.0401398  
H167     H      0.027420000000     0.863050000000     0.331200000000     0.0412049  
H168     H      0.975500000000     0.858970000000     0.330650000000     0.048198   
H169     H      0.817880000000     0.958040000000     0.256480000000     0.0482947  
H170     H      0.818770000000     0.905500000000     0.259480000000     0.0408036  
H171     H      0.747960000000     0.906950000000     0.335460000000     0.0414434  
H172     H      0.747100000000     0.959670000000     0.332400000000     0.0485238  
H173     H      0.738530000000     0.001860000000     0.288470000000     0.0485898  
H174     H      0.741600000000     0.054590000000     0.292570000000     0.0387616  
H175     H      0.833120000000     0.048190000000     0.307440000000     0.0406862  
H176     H      0.830060000000     0.995900000000     0.303220000000     0.0487514  
H177     H      0.704630000000     0.777190000000     0.160400000000     0.0484177  
H178     H      0.732340000000     0.803820000000     0.205510000000     0.0395346  
H179     H      0.758050000000     0.723760000000     0.256130000000     0.0385731  
H180     H      0.729710000000     0.696990000000     0.211310000000     0.0483893  
H181     H      0.728650000000     0.684940000000     0.146450000000     0.0480779  
H182     H      0.700640000000     0.659640000000     0.100060000000     0.0401972  
H183     H      0.633940000000     0.723700000000     0.109560000000     0.0412396  
H184     H      0.661550000000     0.748610000000     0.156440000000     0.0480934  
H185     H      0.719490000000     0.805430000000     0.483010000000     0.04765    
H186     H      0.727440000000     0.809660000000     0.417230000000     0.0403779  
H187     H      0.809630000000     0.768120000000     0.429180000000     0.041434   
H188     H      0.802390000000     0.764970000000     0.494780000000     0.0482192  
H189     H      0.778420000000     0.746040000000     0.546240000000     0.0476791  
H190     H      0.782120000000     0.753660000000     0.612150000000     0.0403542  
H191     H      0.740510000000     0.836280000000     0.600530000000     0.041555   
H192     H      0.737870000000     0.829380000000     0.534840000000     0.0482105  
In1      In     0.793140000000     0.813350000000     0.312420000000     2.39286    
In2      In     0.784340000000     0.819050000000     0.717850000000     2.39194    
In3      In     0.619490000000     0.650160000000     0.016500000000     2.39884    
In4      In     0.795050000000     0.144600000000     0.313970000000     2.38748    
In5      In     0.797590000000     0.152190000000     0.728680000000     2.39567    
In6      In     0.624610000000     0.316350000000     0.023760000000     2.40363    
In7      In     0.124170000000     0.828800000000     0.311700000000     2.39151    
In8      In     0.113660000000     0.822450000000     0.727400000000     2.38325    
In9      In     0.288090000000     0.654510000000     0.017570000000     2.40138    
In10     In     0.123550000000     0.154400000000     0.317250000000     2.38752    
In11     In     0.121660000000     0.152860000000     0.731170000000     2.3851     
In12     In     0.293820000000     0.321180000000     0.022690000000     2.4018     
O1       O      0.835860000000     0.799010000000     0.287070000000    -0.484184   
O2       O      0.836810000000     0.823360000000     0.336290000000    -0.490505   
O3       O      0.778580000000     0.770590000000     0.286540000000    -0.492862   
O4       O      0.798980000000     0.787360000000     0.364720000000    -0.48758    
O5       O      0.803250000000     0.855670000000     0.283580000000    -0.486493   
O6       O      0.761210000000     0.812450000000     0.359990000000    -0.477704   
O7       O      0.764060000000     0.809420000000     0.262550000000    -0.500949   
O8       O      0.771810000000     0.856530000000     0.325550000000    -0.473416   
O9       O      0.769950000000     0.861510000000     0.744360000000    -0.483753   
O10      O      0.793270000000     0.863450000000     0.694500000000    -0.489066   
O11      O      0.741610000000     0.804560000000     0.743070000000    -0.492792   
O12      O      0.784100000000     0.787230000000     0.669860000000    -0.477692   
O13      O      0.826020000000     0.829830000000     0.747180000000    -0.487018   
O14      O      0.759150000000     0.825250000000     0.665120000000    -0.486643   
O15      O      0.779860000000     0.788860000000     0.766790000000    -0.501095   
O16      O      0.827600000000     0.797970000000     0.705520000000    -0.473655   
O17      O      0.657150000000     0.652500000000     0.056420000000    -0.488391   
O18      O      0.625580000000     0.685280000000     0.059490000000    -0.485856   
O19      O      0.653670000000     0.654410000000     0.972300000000    -0.485231   
O20      O      0.626500000000     0.606430000000     0.989460000000    -0.483551   
O21      O      0.576590000000     0.658440000000     0.044400000000    -0.484692   
O22      O      0.618040000000     0.606950000000     0.046510000000    -0.488943   
O23      O      0.622480000000     0.687530000000     0.975770000000    -0.48792    
O24      O      0.576110000000     0.649270000000     0.987520000000    -0.488869   
O25      O      0.769670000000     0.104240000000     0.297000000000    -0.485153   
O26      O      0.812090000000     0.098870000000     0.316700000000    -0.487436   
O27      O      0.753740000000     0.167620000000     0.296380000000    -0.493698   
O28      O      0.791530000000     0.174420000000     0.363670000000    -0.475766   
O29      O      0.837200000000     0.140640000000     0.283160000000    -0.475923   
O30      O      0.779030000000     0.130710000000     0.370090000000    -0.49218    
O31      O      0.788810000000     0.168370000000     0.259820000000    -0.497173   
O32      O      0.836590000000     0.167340000000     0.330370000000    -0.476479   
O33      O      0.836720000000     0.181810000000     0.729010000000    -0.47831    
O34      O      0.839770000000     0.141950000000     0.757220000000    -0.482558   
O35      O      0.768290000000     0.189630000000     0.745170000000    -0.496901   
O36      O      0.767920000000     0.151530000000     0.678740000000    -0.48707    
O37      O      0.813100000000     0.107090000000     0.714630000000    -0.487778   
O38      O      0.809100000000     0.170220000000     0.672710000000    -0.482701   
O39      O      0.779310000000     0.159170000000     0.785930000000    -0.495343   
O40      O      0.772460000000     0.110720000000     0.740290000000    -0.481713   
O41      O      0.626530000000     0.284590000000     0.071400000000    -0.48707    
O42      O      0.663300000000     0.310230000000     0.061080000000    -0.488603   
O43      O      0.633120000000     0.276960000000     0.988020000000    -0.489624   
O44      O      0.581930000000     0.305310000000     0.996820000000    -0.487338   
O45      O      0.634500000000     0.360010000000     0.049900000000    -0.485678   
O46      O      0.581250000000     0.318610000000     0.052380000000    -0.489292   
O47      O      0.655970000000     0.315290000000     0.975750000000    -0.487268   
O48      O      0.620050000000     0.359680000000     0.994850000000    -0.488994   
O49      O      0.154070000000     0.867660000000     0.313860000000    -0.477744   
O50      O      0.116080000000     0.871490000000     0.282380000000    -0.479523   
O51      O      0.161580000000     0.799300000000     0.295830000000    -0.49534    
O52      O      0.123480000000     0.798700000000     0.361610000000    -0.484547   
O53      O      0.078980000000     0.845180000000     0.322210000000    -0.48714    
O54      O      0.139660000000     0.841070000000     0.368560000000    -0.481768   
O55      O      0.131930000000     0.810720000000     0.254490000000    -0.495698   
O56      O      0.083240000000     0.803050000000     0.300180000000    -0.48283    
O57      O      0.073170000000     0.796970000000     0.742930000000    -0.484518   
O58      O      0.068320000000     0.839220000000     0.721360000000    -0.486354   
O59      O      0.138310000000     0.781560000000     0.744090000000    -0.494448   
O60      O      0.101470000000     0.804650000000     0.671430000000    -0.490238   
O61      O      0.107310000000     0.864500000000     0.758340000000    -0.476256   
O62      O      0.143180000000     0.822190000000     0.677370000000    -0.473241   
O63      O      0.134560000000     0.814990000000     0.783070000000    -0.498375   
O64      O      0.137470000000     0.864510000000     0.714870000000    -0.473179   
O65      O      0.287160000000     0.685850000000     0.065840000000    -0.486917   
O66      O      0.249040000000     0.662950000000     0.053490000000    -0.489654   
O67      O      0.280230000000     0.693460000000     0.980780000000    -0.488713   
O68      O      0.330870000000     0.665400000000     0.990450000000    -0.485549   
O69      O      0.277640000000     0.611630000000     0.045200000000    -0.487324   
O70      O      0.331620000000     0.650740000000     0.045440000000    -0.489428   
O71      O      0.256740000000     0.655280000000     0.969600000000    -0.485654   
O72      O      0.290970000000     0.610570000000     0.989710000000    -0.488502   
O73      O      0.082170000000     0.180330000000     0.309560000000    -0.481337   
O74      O      0.079010000000     0.134780000000     0.313070000000    -0.495243   
O75      O      0.158890000000     0.187030000000     0.303000000000    -0.49148    
O76      O      0.111390000000     0.176030000000     0.370990000000    -0.486483   
O77      O      0.134180000000     0.109340000000     0.338470000000    -0.481035   
O78      O      0.152280000000     0.156010000000     0.367720000000    -0.474308   
O79      O      0.132990000000     0.171220000000     0.259950000000    -0.491279   
O80      O      0.135090000000     0.115750000000     0.281110000000    -0.483191   
O81      O      0.147070000000     0.111880000000     0.745480000000    -0.486831   
O82      O      0.103500000000     0.107460000000     0.730120000000    -0.492137   
O83      O      0.162350000000     0.178140000000     0.746620000000    -0.491289   
O84      O      0.124470000000     0.182760000000     0.681450000000    -0.472837   
O85      O      0.081000000000     0.153620000000     0.765560000000    -0.474631   
O86      O      0.137880000000     0.139240000000     0.675150000000    -0.491912   
O87      O      0.129820000000     0.174070000000     0.786450000000    -0.494209   
O88      O      0.079270000000     0.173110000000     0.713080000000    -0.47627    
O89      O      0.267350000000     0.320940000000     0.075380000000    -0.484596   
O90      O      0.281600000000     0.280740000000     0.054460000000    -0.491694   
O91      O      0.254130000000     0.313620000000     0.987770000000    -0.48796    
O92      O      0.281180000000     0.363720000000     0.995710000000    -0.486128   
O93      O      0.336110000000     0.307650000000     0.049040000000    -0.492275   
O94      O      0.297600000000     0.365390000000     0.049780000000    -0.487253   
O95      O      0.292340000000     0.291830000000     0.972570000000    -0.485218   
O96      O      0.337630000000     0.324860000000     0.995350000000    -0.490505   


