data_structure

_audit_creation_method RASPA-1.0
_audit_creation_date 2023-5-22
_audit_author_name 'Poobodin Mano'

_cell_length_a    46.2067
_cell_length_b    46.1801
_cell_length_c    44.8741
_cell_angle_alpha 90
_cell_angle_beta  90
_cell_angle_gamma 90
_cell_volume      95753.7

_symmetry_cell_setting          triclinic
_symmetry_space_group_name_Hall 'P 1'
_symmetry_space_group_name_H-M  'P 1'
_symmetry_Int_Tables_number     1

_symmetry_equiv_pos_as_xyz 'x,y,z'

loop_
_atom_site_label
_atom_site_type_symbol
_atom_site_fract_x
_atom_site_fract_y
_atom_site_fract_z
_atom_site_charge
C1       C      0.912880000000     0.414270000000     0.928280000000     0.361048   
C2       C      0.844930000000     0.414660000000     0.858650000000     0.362617   
C3       C      0.912360000000     0.346420000000     0.859710000000     0.36094    
C4       C      0.844480000000     0.347340000000     0.928800000000     0.361273   
C5       C      0.096450000000     0.593470000000     0.110740000000     0.359076   
C6       C      0.094240000000     0.662700000000     0.176390000000     0.359439   
C7       C      0.166270000000     0.595540000000     0.176200000000     0.360763   
C8       C      0.163650000000     0.665120000000     0.110920000000     0.359369   
C9       C      0.345190000000     0.846520000000     0.928930000000     0.359744   
C10      C      0.413130000000     0.845870000000     0.860130000000     0.361585   
C11      C      0.345380000000     0.914470000000     0.860000000000     0.364686   
C12      C      0.414540000000     0.912690000000     0.929010000000     0.359862   
C13      C      0.664140000000     0.165210000000     0.111690000000     0.359615   
C14      C      0.594590000000     0.162020000000     0.176960000000     0.359928   
C15      C      0.597440000000     0.092740000000     0.111260000000     0.360004   
C16      C      0.667040000000     0.095260000000     0.176470000000     0.359709   
C17      C      0.346580000000     0.412570000000     0.358090000000     0.359909   
C18      C      0.412460000000     0.342990000000     0.358910000000     0.356661   
C19      C      0.413410000000     0.410880000000     0.427180000000     0.362068   
C20      C      0.344480000000     0.343470000000     0.427700000000     0.366023   
C21      C      0.661510000000     0.595450000000     0.677530000000     0.359495   
C22      C      0.592770000000     0.662400000000     0.677870000000     0.361535   
C23      C      0.661420000000     0.662760000000     0.608710000000     0.362259   
C24      C      0.593490000000     0.594620000000     0.608670000000     0.362596   
C25      C      0.913090000000     0.843530000000     0.359720000000     0.357201   
C26      C      0.847060000000     0.912660000000     0.359010000000     0.361141   
C27      C      0.845510000000     0.844330000000     0.429180000000     0.365093   
C28      C      0.914480000000     0.910950000000     0.428490000000     0.360917   
C29      C      0.093510000000     0.163000000000     0.678980000000     0.362392   
C30      C      0.162000000000     0.095810000000     0.679410000000     0.358819   
C31      C      0.094620000000     0.094300000000     0.610300000000     0.361719   
C32      C      0.161710000000     0.162720000000     0.609520000000     0.362396   
C33      C      0.933390000000     0.929260000000     0.447190000000    -0.100768   
C34      C      0.952840000000     0.948800000000     0.433990000000     0.0242709  
C35      C      0.970590000000     0.966290000000     0.451660000000    -0.0693381  
C36      C      0.969100000000     0.964730000000     0.482910000000     0.0304334  
C37      C      0.949630000000     0.945150000000     0.496090000000    -0.0690882  
C38      C      0.932020000000     0.927530000000     0.478410000000     0.0232417  
C39      C      0.987670000000     0.983590000000     0.501680000000     0.000320588
C40      C      0.017030000000     0.987650000000     0.494660000000    -0.0368512  
C41      C      0.034480000000     0.005460000000     0.512300000000    -0.0367884  
C42      C      0.022930000000     0.019740000000     0.537310000000     0.000368726
C43      C      0.993520000000     0.015690000000     0.544270000000    -0.0367686  
C44      C      0.976130000000     0.997760000000     0.526710000000    -0.0368579  
C45      C      0.041460000000     0.038810000000     0.556050000000     0.0303857  
C46      C      0.062330000000     0.056970000000     0.542920000000    -0.0690125  
C47      C      0.079670000000     0.074920000000     0.560540000000     0.0233157  
C48      C      0.076430000000     0.075210000000     0.591660000000    -0.101681   
C49      C      0.055610000000     0.057130000000     0.604830000000     0.0243625  
C50      C      0.038370000000     0.039080000000     0.587240000000    -0.0692468  
C51      C      0.826810000000     0.825850000000     0.447950000000    -0.103853   
C52      C      0.836370000000     0.798440000000     0.457280000000     0.024949   
C53      C      0.818540000000     0.780790000000     0.474700000000    -0.0699301  
C54      C      0.790870000000     0.790290000000     0.483310000000     0.0308704  
C55      C      0.781410000000     0.817810000000     0.474120000000    -0.069909   
C56      C      0.799170000000     0.835370000000     0.456530000000     0.0244873  
C57      C      0.771890000000     0.771510000000     0.501730000000     0.000173944
C58      C      0.769120000000     0.741870000000     0.495250000000    -0.0368894  
C59      C      0.751120000000     0.724210000000     0.512470000000    -0.0367209  
C60      C      0.735610000000     0.735750000000     0.536700000000     0.000330561
C61      C      0.738510000000     0.765410000000     0.543210000000    -0.0367542  
C62      C      0.756370000000     0.783090000000     0.525870000000    -0.0368047  
C63      C      0.716490000000     0.716940000000     0.555080000000     0.0304878  
C64      C      0.724800000000     0.688460000000     0.562230000000    -0.0693023  
C65      C      0.706850000000     0.670820000000     0.579510000000     0.024377   
C66      C      0.680260000000     0.681300000000     0.590170000000    -0.102351   
C67      C      0.671900000000     0.709720000000     0.583100000000     0.0236547  
C68      C      0.689780000000     0.727320000000     0.565680000000    -0.0691698  
C69      C      0.325750000000     0.324950000000     0.446380000000    -0.104827   
C70      C      0.298020000000     0.334370000000     0.454770000000     0.0248349  
C71      C      0.280300000000     0.316840000000     0.472430000000    -0.0700438  
C72      C      0.289880000000     0.289450000000     0.481890000000     0.0309787  
C73      C      0.317610000000     0.280020000000     0.473410000000    -0.0701109  
C74      C      0.335400000000     0.297630000000     0.455920000000     0.0251983  
C75      C      0.271000000000     0.270780000000     0.500540000000     0.000123743
C76      C      0.255400000000     0.282570000000     0.524520000000    -0.0368236  
C77      C      0.237690000000     0.264990000000     0.542120000000    -0.0367142  
C78      C      0.235020000000     0.235220000000     0.536050000000     0.000301292
C79      C      0.250590000000     0.223480000000     0.511970000000    -0.0367186  
C80      C      0.268430000000     0.241040000000     0.494480000000    -0.0368269  
C81      C      0.216110000000     0.216520000000     0.554770000000     0.0305058  
C82      C      0.189320000000     0.226810000000     0.565250000000    -0.069188   
C83      C      0.171660000000     0.209330000000     0.583030000000     0.0236662  
C84      C      0.180320000000     0.181120000000     0.590590000000    -0.102308   
C85      C      0.206970000000     0.170720000000     0.580030000000     0.0244457  
C86      C      0.224710000000     0.188240000000     0.562380000000    -0.0693381  
C87      C      0.432180000000     0.429460000000     0.445750000000    -0.100909   
C88      C      0.451870000000     0.448680000000     0.432420000000     0.0244053  
C89      C      0.469510000000     0.466390000000     0.449990000000    -0.0693387  
C90      C      0.467690000000     0.465350000000     0.481240000000     0.030512   
C91      C      0.447980000000     0.446100000000     0.494540000000    -0.0691552  
C92      C      0.430470000000     0.428270000000     0.476980000000     0.0234316  
C93      C      0.486210000000     0.484380000000     0.499900000000     0.000369468
C94      C      0.515640000000     0.488220000000     0.493050000000    -0.0369253  
C95      C      0.533070000000     0.506090000000     0.510660000000    -0.0366685  
C96      C      0.521440000000     0.520640000000     0.535460000000     0.000264489
C97      C      0.491950000000     0.516840000000     0.542220000000    -0.0366605  
C98      C      0.474570000000     0.498870000000     0.524690000000    -0.0369285  
C99      C      0.539970000000     0.539650000000     0.554240000000     0.0305191  
C100     C      0.561050000000     0.557610000000     0.541180000000    -0.0692156  
C101     C      0.578470000000     0.575430000000     0.558860000000     0.0236902  
C102     C      0.575130000000     0.575770000000     0.589960000000    -0.102345   
C103     C      0.554080000000     0.557900000000     0.603060000000     0.02464    
C104     C      0.536740000000     0.540000000000     0.585420000000    -0.0693987  
C105     C      0.686430000000     0.076810000000     0.194480000000    -0.101495   
C106     C      0.695610000000     0.049760000000     0.183730000000     0.0228971  
C107     C      0.713600000000     0.032140000000     0.201010000000    -0.0689723  
C108     C      0.722750000000     0.041170000000     0.229430000000     0.0303115  
C109     C      0.713620000000     0.068320000000     0.240070000000    -0.0691837  
C110     C      0.695690000000     0.085950000000     0.222770000000     0.0240161  
C111     C      0.741500000000     0.022250000000     0.248040000000     0.000327459
C112     C      0.736700000000     0.992200000000     0.249190000000    -0.0367553  
C113     C      0.754090000000     0.974460000000     0.266970000000    -0.0368548  
C114     C      0.776640000000     0.986360000000     0.284060000000     0.00032968 
C115     C      0.781510000000     0.016380000000     0.282850000000    -0.0369697  
C116     C      0.764170000000     0.034110000000     0.265010000000    -0.0367513  
C117     C      0.794890000000     0.967540000000     0.303220000000     0.0305195  
C118     C      0.804710000000     0.940570000000     0.292760000000    -0.0694349  
C119     C      0.821750000000     0.922800000000     0.310850000000     0.0235603  
C120     C      0.829240000000     0.931560000000     0.339820000000    -0.102997   
C121     C      0.819470000000     0.958500000000     0.350300000000     0.0243214  
C122     C      0.802520000000     0.976330000000     0.332170000000    -0.0695195  
C123     C      0.575230000000     0.180280000000     0.195220000000    -0.101672   
C124     C      0.566170000000     0.170890000000     0.223500000000     0.0239602  
C125     C      0.548270000000     0.188350000000     0.241030000000    -0.0693073  
C126     C      0.538980000000     0.215510000000     0.230620000000     0.0303916  
C127     C      0.547880000000     0.224770000000     0.202210000000    -0.0691678  
C128     C      0.565870000000     0.207350000000     0.184710000000     0.0230092  
C129     C      0.520250000000     0.234190000000     0.249430000000     0.000192054
C130     C      0.496690000000     0.249140000000     0.236930000000    -0.0367928  
C131     C      0.479100000000     0.266720000000     0.254680000000    -0.0369523  
C132     C      0.484770000000     0.269860000000     0.285290000000     0.000406543
C133     C      0.508360000000     0.254950000000     0.297770000000    -0.036944   
C134     C      0.525860000000     0.237280000000     0.280060000000    -0.0367419  
C135     C      0.466200000000     0.288650000000     0.304140000000     0.0300229  
C136     C      0.435930000000     0.288180000000     0.300990000000    -0.0688371  
C137     C      0.418450000000     0.305790000000     0.318830000000     0.0229773  
C138     C      0.430900000000     0.324310000000     0.340100000000    -0.0997164  
C139     C      0.461140000000     0.324860000000     0.343230000000     0.0224018  
C140     C      0.478600000000     0.307180000000     0.325470000000    -0.0687344  
C141     C      0.326760000000     0.933180000000     0.841400000000    -0.104008   
C142     C      0.333330000000     0.962660000000     0.837700000000     0.024197   
C143     C      0.315630000000     0.980380000000     0.820210000000    -0.0696144  
C144     C      0.291010000000     0.968970000000     0.806010000000     0.0307369  
C145     C      0.284500000000     0.939440000000     0.809720000000    -0.0697807  
C146     C      0.302170000000     0.921740000000     0.827250000000     0.024956   
C147     C      0.272180000000     0.987790000000     0.787410000000     0.000248567
C148     C      0.265050000000     0.015940000000     0.796810000000    -0.0367836  
C149     C      0.247190000000     0.033550000000     0.779390000000    -0.0368133  
C150     C      0.236070000000     0.023440000000     0.752140000000     0.000425957
C151     C      0.243290000000     0.995320000000     0.742710000000    -0.0368073  
C152     C      0.261110000000     0.977690000000     0.760150000000    -0.0367951  
C153     C      0.216960000000     0.042110000000     0.733650000000     0.0301482  
C154     C      0.222840000000     0.071820000000     0.730300000000    -0.068916   
C155     C      0.204940000000     0.089300000000     0.712770000000     0.0235708  
C156     C      0.180790000000     0.077440000000     0.698190000000    -0.100441   
C157     C      0.174820000000     0.047800000000     0.701570000000     0.0226897  
C158     C      0.192690000000     0.030330000000     0.719120000000    -0.0687394  
C159     C      0.431540000000     0.826990000000     0.841490000000    -0.101052   
C160     C      0.426620000000     0.824740000000     0.810690000000     0.0233422  
C161     C      0.443970000000     0.806790000000     0.793090000000    -0.0691194  
C162     C      0.466660000000     0.790760000000     0.805920000000     0.030455   
C163     C      0.471570000000     0.793080000000     0.836750000000    -0.0692814  
C164     C      0.454170000000     0.810980000000     0.854350000000     0.0243343  
C165     C      0.485120000000     0.771690000000     0.787210000000     0.000335492
C166     C      0.472780000000     0.754300000000     0.764850000000    -0.0368195  
C167     C      0.490140000000     0.736390000000     0.747240000000    -0.036766   
C168     C      0.520280000000     0.735470000000     0.751530000000     0.000290006
C169     C      0.532610000000     0.752850000000     0.773900000000    -0.0367492  
C170     C      0.515230000000     0.770730000000     0.791550000000    -0.0368288  
C171     C      0.538780000000     0.716540000000     0.732670000000     0.0304843  
C172     C      0.533450000000     0.713890000000     0.701930000000    -0.069406   
C173     C      0.550930000000     0.696230000000     0.684160000000     0.024387   
C174     C      0.574150000000     0.680860000000     0.696720000000    -0.1026     
C175     C      0.579490000000     0.683410000000     0.727420000000     0.0234529  
C176     C      0.561990000000     0.701050000000     0.745210000000    -0.0692663  
C177     C      0.433640000000     0.930570000000     0.947930000000    -0.101536   
C178     C      0.425790000000     0.937100000000     0.977410000000     0.0231221  
C179     C      0.443730000000     0.954240000000     0.995230000000    -0.0689962  
C180     C      0.469980000000     0.965130000000     0.983990000000     0.0303275  
C181     C      0.477860000000     0.958410000000     0.954510000000    -0.0691511  
C182     C      0.459860000000     0.941360000000     0.936660000000     0.023926   
C183     C      0.488980000000     0.983560000000     0.002870000000     0.000322897
C184     C      0.492890000000     0.977290000000     0.033280000000    -0.0367391  
C185     C      0.510590000000     0.994740000000     0.051040000000    -0.0369563  
C186     C      0.524900000000     0.018800000000     0.038770000000     0.000331507
C187     C      0.521080000000     0.025050000000     0.008370000000    -0.0369198  
C188     C      0.503280000000     0.007680000000     0.990650000000    -0.03674    
C189     C      0.543700000000     0.037400000000     0.057590000000     0.0303823  
C190     C      0.534860000000     0.045650000000     0.086350000000    -0.0691674  
C191     C      0.552360000000     0.063560000000     0.103850000000     0.0230503  
C192     C      0.579110000000     0.073460000000     0.093000000000    -0.101767   
C193     C      0.588070000000     0.065030000000     0.064380000000     0.0241236  
C194     C      0.570530000000     0.047230000000     0.046830000000    -0.0694234  
C195     C      0.074970000000     0.681110000000     0.194580000000    -0.101539   
C196     C      0.064190000000     0.671010000000     0.221930000000     0.0240511  
C197     C      0.046290000000     0.688540000000     0.239380000000    -0.0692441  
C198     C      0.038790000000     0.716560000000     0.229850000000     0.0303507  
C199     C      0.049510000000     0.726580000000     0.202390000000    -0.0691166  
C200     C      0.067410000000     0.709040000000     0.184940000000     0.0229525  
C201     C      0.020030000000     0.735310000000     0.248620000000     0.000315513
C202     C      0.995950000000     0.723680000000     0.263560000000    -0.0367781  
C203     C      0.978520000000     0.741240000000     0.281470000000    -0.0368391  
C204     C      0.984760000000     0.770860000000     0.284870000000     0.000416903
C205     C      0.008790000000     0.782510000000     0.269840000000    -0.0368404  
C206     C      0.026210000000     0.764950000000     0.251920000000    -0.0367777  
C207     C      0.966350000000     0.789500000000     0.304100000000     0.0300763  
C208     C      0.978920000000     0.810400000000     0.322860000000    -0.0687153  
C209     C      0.961620000000     0.827920000000     0.340950000000     0.0224561  
C210     C      0.931380000000     0.824920000000     0.340680000000    -0.0999527  
C211     C      0.918760000000     0.804040000000     0.321990000000     0.0233241  
C212     C      0.936050000000     0.786520000000     0.303890000000    -0.0689208  
C213     C      0.326600000000     0.828120000000     0.947850000000    -0.101431   
C214     C      0.327920000000     0.797810000000     0.945570000000     0.0232033  
C215     C      0.310250000000     0.780380000000     0.963380000000    -0.0692265  
C216     C      0.291010000000     0.792890000000     0.983940000000     0.0304306  
C217     C      0.289800000000     0.823220000000     0.986300000000    -0.0693193  
C218     C      0.307360000000     0.840660000000     0.968370000000     0.0239105  
C219     C      0.272200000000     0.774350000000     0.002790000000     0.000242076
C220     C      0.257810000000     0.750370000000     0.990450000000    -0.0368555  
C221     C      0.240040000000     0.732940000000     0.008140000000    -0.0368579  
C222     C      0.236390000000     0.739010000000     0.038600000000     0.000279239
C223     C      0.250850000000     0.762940000000     0.050980000000    -0.0369013  
C224     C      0.268490000000     0.780480000000     0.033240000000    -0.0368582  
C225     C      0.217570000000     0.720400000000     0.057370000000     0.030339   
C226     C      0.226530000000     0.711790000000     0.085980000000    -0.0691266  
C227     C      0.208980000000     0.693900000000     0.103440000000     0.022901   
C228     C      0.182060000000     0.684370000000     0.092700000000    -0.101145   
C229     C      0.172980000000     0.693150000000     0.064220000000     0.0238793  
C230     C      0.190580000000     0.710920000000     0.046720000000    -0.0693144  
C231     C      0.328800000000     0.431660000000     0.339050000000    -0.102246   
C232     C      0.319110000000     0.458540000000     0.349770000000     0.0239691  
C233     C      0.302030000000     0.476470000000     0.331890000000    -0.0692667  
C234     C      0.294200000000     0.467880000000     0.302910000000     0.0303391  
C235     C      0.304030000000     0.441000000000     0.292200000000    -0.0690345  
C236     C      0.321170000000     0.423100000000     0.310070000000     0.0231494  
C237     C      0.275680000000     0.486790000000     0.284050000000     0.000313284
C238     C      0.252200000000     0.501880000000     0.296570000000    -0.0367198  
C239     C      0.234760000000     0.519640000000     0.278890000000    -0.0368637  
C240     C      0.240320000000     0.522690000000     0.248260000000     0.000321781
C241     C      0.263730000000     0.507570000000     0.235700000000    -0.0368583  
C242     C      0.281240000000     0.489860000000     0.253400000000    -0.0367794  
C243     C      0.221700000000     0.541550000000     0.229520000000     0.030453   
C244     C      0.212590000000     0.568730000000     0.240040000000    -0.0694207  
C245     C      0.194750000000     0.586340000000     0.222610000000     0.0242549  
C246     C      0.185590000000     0.577110000000     0.194320000000    -0.102097   
C247     C      0.194780000000     0.550020000000     0.183690000000     0.0232069  
C248     C      0.212700000000     0.532440000000     0.201090000000    -0.0691828  
C249     C      0.930910000000     0.327580000000     0.841170000000    -0.101111   
C250     C      0.954780000000     0.313260000000     0.853760000000     0.02415    
C251     C      0.972350000000     0.295440000000     0.836250000000    -0.069235   
C252     C      0.966390000000     0.291520000000     0.805790000000     0.0303824  
C253     C      0.942460000000     0.305850000000     0.793240000000    -0.0690427  
C254     C      0.924930000000     0.323720000000     0.810740000000     0.0231568  
C255     C      0.985050000000     0.272530000000     0.787200000000     0.000363279
C256     C      0.015320000000     0.273200000000     0.790310000000    -0.0368925  
C257     C      0.032870000000     0.255360000000     0.772820000000    -0.0367194  
C258     C      0.020580000000     0.236380000000     0.751840000000     0.00025584 
C259     C      0.990300000000     0.235700000000     0.748760000000    -0.0367959  
C260     C      0.972750000000     0.253580000000     0.766220000000    -0.0368124  
C261     C      0.039260000000     0.217440000000     0.733180000000     0.0305362  
C262     C      0.063580000000     0.203590000000     0.745520000000    -0.0693314  
C263     C      0.081190000000     0.185870000000     0.727930000000     0.023585   
C264     C      0.074850000000     0.181610000000     0.697640000000    -0.102991   
C265     C      0.050550000000     0.195380000000     0.685270000000     0.0245348  
C266     C      0.032950000000     0.213110000000     0.702840000000    -0.0695238  
C267     C      0.826010000000     0.329070000000     0.948000000000    -0.10213    
C268     C      0.803710000000     0.341490000000     0.965000000000     0.0242786  
C269     C      0.786270000000     0.324200000000     0.983200000000    -0.0693899  
C270     C      0.790720000000     0.294110000000     0.984740000000     0.0304585  
C271     C      0.813070000000     0.281740000000     0.967680000000    -0.0692039  
C272     C      0.830530000000     0.299040000000     0.949530000000     0.0234462  
C273     C      0.772090000000     0.275670000000     0.003980000000     0.000293   
C274     C      0.742130000000     0.280680000000     0.005760000000    -0.0367324  
C275     C      0.724570000000     0.263170000000     0.023600000000    -0.0368433  
C276     C      0.736550000000     0.240210000000     0.040080000000     0.000376242
C277     C      0.766540000000     0.235290000000     0.038410000000    -0.036816   
C278     C      0.784090000000     0.252810000000     0.020580000000    -0.0367168  
C279     C      0.717810000000     0.221290000000     0.058690000000     0.0303246  
C280     C      0.690530000000     0.212350000000     0.048280000000    -0.0691876  
C281     C      0.673040000000     0.194280000000     0.065580000000     0.0239929  
C282     C      0.682460000000     0.184710000000     0.093660000000    -0.101514   
C283     C      0.709640000000     0.193690000000     0.104180000000     0.0229863  
C284     C      0.727130000000     0.211810000000     0.086900000000    -0.0691053  
C285     C      0.826450000000     0.433210000000     0.839740000000    -0.102742   
C286     C      0.832340000000     0.462920000000     0.836870000000     0.0236588  
C287     C      0.814680000000     0.480530000000     0.819220000000    -0.069359   
C288     C      0.790800000000     0.468790000000     0.804010000000     0.0305611  
C289     C      0.785010000000     0.439020000000     0.806830000000    -0.0695016  
C290     C      0.802630000000     0.421420000000     0.824530000000     0.0244819  
C291     C      0.771940000000     0.487520000000     0.785370000000     0.000245484
C292     C      0.763710000000     0.515190000000     0.795340000000    -0.0368105  
C293     C      0.745830000000     0.532740000000     0.777880000000    -0.0367644  
C294     C      0.735780000000     0.523070000000     0.750030000000     0.000396651
C295     C      0.744090000000     0.495430000000     0.740040000000    -0.0368151  
C296     C      0.761930000000     0.477860000000     0.757510000000    -0.03678    
C297     C      0.716670000000     0.541700000000     0.731500000000     0.0302459  
C298     C      0.721760000000     0.571650000000     0.729230000000    -0.0690165  
C299     C      0.703810000000     0.589120000000     0.711760000000     0.0237927  
C300     C      0.680390000000     0.577030000000     0.696160000000    -0.100579   
C301     C      0.675240000000     0.547140000000     0.698410000000     0.0229208  
C302     C      0.693160000000     0.529660000000     0.715900000000    -0.0688721  
C303     C      0.077860000000     0.574470000000     0.092430000000    -0.101281   
C304     C      0.051140000000     0.564620000000     0.103400000000     0.0228372  
C305     C      0.033400000000     0.546980000000     0.085870000000    -0.0690624  
C306     C      0.041960000000     0.538970000000     0.056950000000     0.0303005  
C307     C      0.068750000000     0.548770000000     0.046060000000    -0.0692602  
C308     C      0.086540000000     0.566280000000     0.063640000000     0.0238267  
C309     C      0.022940000000     0.520620000000     0.038120000000     0.000347389
C310     C      0.008740000000     0.496440000000     0.050260000000    -0.0369142  
C311     C      0.990910000000     0.479140000000     0.032480000000    -0.0367661  
C312     C      0.986770000000     0.485700000000     0.002170000000     0.000319071
C313     C      0.000910000000     0.509980000000     0.990090000000    -0.0367345  
C314     C      0.018830000000     0.527190000000     0.007840000000    -0.0368765  
C315     C      0.967800000000     0.467320000000     0.983210000000     0.0304086  
C316     C      0.941700000000     0.456100000000     0.994500000000    -0.0690814  
C317     C      0.923890000000     0.438830000000     0.976670000000     0.0233075  
C318     C      0.931720000000     0.432490000000     0.947140000000    -0.101758   
C319     C      0.957750000000     0.443680000000     0.935800000000     0.0241885  
C320     C      0.975620000000     0.460860000000     0.953650000000    -0.0692768  
H1       H      0.954350000000     0.950630000000     0.409970000000     0.0394789  
H2       H      0.985160000000     0.981370000000     0.440860000000     0.0482094  
H3       H      0.948220000000     0.943240000000     0.520110000000     0.0481062  
H4       H      0.917250000000     0.912640000000     0.489220000000     0.0385465  
H5       H      0.026630000000     0.976710000000     0.475730000000     0.0393919  
H6       H      0.057130000000     0.007690000000     0.506570000000     0.0391397  
H7       H      0.983780000000     0.026740000000     0.563040000000     0.0390958  
H8       H      0.953480000000     0.995390000000     0.532440000000     0.0393433  
H9       H      0.065020000000     0.057640000000     0.518960000000     0.0478037  
H10      H      0.095470000000     0.088720000000     0.549760000000     0.0383903  
H11      H      0.052720000000     0.056800000000     0.628780000000     0.0393513  
H12      H      0.022850000000     0.025070000000     0.598150000000     0.0479675  
H13      H      0.857590000000     0.790540000000     0.451030000000     0.0382991  
H14      H      0.826540000000     0.759820000000     0.481710000000     0.0483191  
H15      H      0.760100000000     0.825600000000     0.480150000000     0.0483115  
H16      H      0.791210000000     0.856390000000     0.449630000000     0.0381647  
H17      H      0.780490000000     0.732400000000     0.476530000000     0.0393071  
H18      H      0.749040000000     0.701590000000     0.506490000000     0.039129   
H19      H      0.727300000000     0.774940000000     0.561990000000     0.0390873  
H20      H      0.758390000000     0.805780000000     0.531660000000     0.0393784  
H21      H      0.745400000000     0.679890000000     0.554830000000     0.0479141  
H22      H      0.713920000000     0.649030000000     0.584730000000     0.0386384  
H23      H      0.651460000000     0.718350000000     0.590900000000     0.0387026  
H24      H      0.682470000000     0.748960000000     0.560240000000     0.0478898  
H25      H      0.289990000000     0.355320000000     0.447710000000     0.0380068  
H26      H      0.258930000000     0.324580000000     0.478350000000     0.04827    
H27      H      0.325700000000     0.259150000000     0.480620000000     0.0483555  
H28      H      0.356690000000     0.289810000000     0.449810000000     0.0380014  
H29      H      0.257260000000     0.305340000000     0.530000000000     0.0393691  
H30      H      0.226430000000     0.274680000000     0.560790000000     0.0390545  
H31      H      0.248680000000     0.200760000000     0.506330000000     0.039141   
H32      H      0.279870000000     0.231410000000     0.475880000000     0.0392759  
H33      H      0.181790000000     0.248290000000     0.559460000000     0.0478721  
H34      H      0.151160000000     0.217890000000     0.590740000000     0.0386281  
H35      H      0.214270000000     0.149090000000     0.585610000000     0.0387134  
H36      H      0.245370000000     0.179750000000     0.555070000000     0.0479513  
H37      H      0.453640000000     0.450090000000     0.408390000000     0.0394141  
H38      H      0.484270000000     0.481210000000     0.439080000000     0.0482416  
H39      H      0.446320000000     0.444580000000     0.518570000000     0.0481068  
H40      H      0.415520000000     0.413640000000     0.487880000000     0.0385541  
H41      H      0.525320000000     0.477040000000     0.474320000000     0.0394294  
H42      H      0.555780000000     0.508130000000     0.505090000000     0.0391484  
H43      H      0.482150000000     0.528090000000     0.560840000000     0.039054   
H44      H      0.451870000000     0.496680000000     0.530280000000     0.0393453  
H45      H      0.563850000000     0.558200000000     0.517230000000     0.0478857  
H46      H      0.594450000000     0.589060000000     0.548120000000     0.0382843  
H47      H      0.551090000000     0.557610000000     0.627010000000     0.0391333  
H48      H      0.521040000000     0.526140000000     0.596270000000     0.0479968  
H49      H      0.688900000000     0.042190000000     0.161960000000     0.0384733  
H50      H      0.720540000000     0.011530000000     0.191970000000     0.0478031  
H51      H      0.719930000000     0.075770000000     0.262010000000     0.048019   
H52      H      0.688880000000     0.106660000000     0.231690000000     0.0396603  
H53      H      0.719140000000     0.982410000000     0.236790000000     0.039168   
H54      H      0.749520000000     0.951470000000     0.267760000000     0.0393456  
H55      H      0.798980000000     0.026140000000     0.295410000000     0.0392593  
H56      H      0.768760000000     0.057100000000     0.264270000000     0.0391544  
H57      H      0.799490000000     0.933340000000     0.270440000000     0.0480872  
H58      H      0.829030000000     0.902160000000     0.302150000000     0.0388875  
H59      H      0.824860000000     0.965810000000     0.372560000000     0.0386659  
H60      H      0.795010000000     0.996830000000     0.341000000000     0.0481585  
H61      H      0.572980000000     0.150090000000     0.232160000000     0.0396987  
H62      H      0.541490000000     0.180440000000     0.262660000000     0.0482453  
H63      H      0.541340000000     0.245720000000     0.193690000000     0.0480246  
H64      H      0.572550000000     0.215170000000     0.163020000000     0.0384221  
H65      H      0.491650000000     0.247010000000     0.213460000000     0.0392156  
H66      H      0.461250000000     0.278130000000     0.244350000000     0.039291   
H67      H      0.513130000000     0.256710000000     0.321330000000     0.0392947  
H68      H      0.544020000000     0.226270000000     0.290300000000     0.0392502  
H69      H      0.425700000000     0.273910000000     0.284990000000     0.0480684  
H70      H      0.395200000000     0.304880000000     0.315960000000     0.039884   
H71      H      0.471350000000     0.338970000000     0.359390000000     0.0392299  
H72      H      0.501870000000     0.308290000000     0.328190000000     0.0479818  
H73      H      0.352180000000     0.972060000000     0.848290000000     0.0382159  
H74      H      0.321440000000     0.002950000000     0.817520000000     0.0480801  
H75      H      0.265500000000     0.930070000000     0.799380000000     0.0481661  
H76      H      0.296510000000     0.899110000000     0.829760000000     0.0384505  
H77      H      0.272890000000     0.024210000000     0.817910000000     0.0391746  
H78      H      0.241710000000     0.054940000000     0.787530000000     0.0392232  
H79      H      0.235490000000     0.987030000000     0.721610000000     0.0391987  
H80      H      0.266550000000     0.956280000000     0.752050000000     0.0393065  
H81      H      0.241550000000     0.081510000000     0.740870000000     0.0479459  
H82      H      0.210130000000     0.112060000000     0.710490000000     0.0393051  
H83      H      0.156290000000     0.038070000000     0.690690000000     0.0392252  
H84      H      0.187290000000     0.007630000000     0.721560000000     0.0478392  
H85      H      0.409370000000     0.836880000000     0.800150000000     0.0387186  
H86      H      0.439850000000     0.805750000000     0.769360000000     0.0480122  
H87      H      0.488640000000     0.780750000000     0.847370000000     0.048132   
H88      H      0.458440000000     0.812220000000     0.878060000000     0.0392504  
H89      H      0.449600000000     0.754210000000     0.761250000000     0.0392737  
H90      H      0.479890000000     0.722940000000     0.730520000000     0.039121   
H91      H      0.555790000000     0.753020000000     0.777480000000     0.0392024  
H92      H      0.525460000000     0.784180000000     0.808290000000     0.0392543  
H93      H      0.516010000000     0.725820000000     0.691470000000     0.0480424  
H94      H      0.546340000000     0.694760000000     0.660530000000     0.0390078  
H95      H      0.597180000000     0.671740000000     0.737750000000     0.0385664  
H96      H      0.566470000000     0.702290000000     0.768860000000     0.0479363  
H97      H      0.405640000000     0.929160000000     0.986670000000     0.0390542  
H98      H      0.436790000000     0.959330000000     0.017680000000     0.0477853  
H99      H      0.498120000000     0.966070000000     0.945280000000     0.0479065  
H100     H      0.466550000000     0.936560000000     0.914060000000     0.0388886  
H101     H      0.482570000000     0.958630000000     0.043320000000     0.0390218  
H102     H      0.513420000000     0.989140000000     0.074290000000     0.0392953  
H103     H      0.531460000000     0.043700000000     0.998370000000     0.0393501  
H104     H      0.500380000000     0.013450000000     0.967450000000     0.0391882  
H105     H      0.514170000000     0.038670000000     0.095140000000     0.0479651  
H106     H      0.544870000000     0.069750000000     0.125820000000     0.0384066  
H107     H      0.608610000000     0.072270000000     0.055440000000     0.0396539  
H108     H      0.578090000000     0.040960000000     0.024920000000     0.048249   
H109     H      0.069720000000     0.649600000000     0.229990000000     0.0396644  
H110     H      0.038720000000     0.680290000000     0.260590000000     0.0481243  
H111     H      0.043840000000     0.747910000000     0.194230000000     0.0479785  
H112     H      0.075350000000     0.717380000000     0.163910000000     0.0384842  
H113     H      0.990410000000     0.701000000000     0.261250000000     0.0391813  
H114     H      0.960340000000     0.731520000000     0.292960000000     0.0391425  
H115     H      0.014020000000     0.805300000000     0.271720000000     0.0391716  
H116     H      0.044770000000     0.774540000000     0.240970000000     0.0391223  
H117     H      0.002200000000     0.812980000000     0.323860000000     0.0478795  
H118     H      0.971960000000     0.843780000000     0.355200000000     0.0391961  
H119     H      0.895490000000     0.801300000000     0.321240000000     0.0397492  
H120     H      0.925660000000     0.770890000000     0.289430000000     0.0480383  
H121     H      0.342590000000     0.787530000000     0.930000000000     0.0388331  
H122     H      0.311910000000     0.757070000000     0.961290000000     0.0481854  
H123     H      0.274970000000     0.833500000000     0.001720000000     0.0482475  
H124     H      0.305850000000     0.863970000000     0.970590000000     0.039438   
H125     H      0.260030000000     0.745240000000     0.967010000000     0.0392935  
H126     H      0.229410000000     0.714490000000     0.998020000000     0.0393004  
H127     H      0.248280000000     0.768300000000     0.074320000000     0.0393074  
H128     H      0.279490000000     0.798660000000     0.043440000000     0.039339   
H129     H      0.247340000000     0.718500000000     0.094680000000     0.048099   
H130     H      0.216560000000     0.687440000000     0.125290000000     0.0385277  
H131     H      0.152310000000     0.686190000000     0.055380000000     0.0397581  
H132     H      0.182930000000     0.717460000000     0.024920000000     0.048278   
H133     H      0.324760000000     0.465760000000     0.371990000000     0.0388084  
H134     H      0.295190000000     0.497210000000     0.340680000000     0.0479801  
H135     H      0.298090000000     0.433550000000     0.270140000000     0.04782    
H136     H      0.328250000000     0.402450000000     0.301240000000     0.0390804  
H137     H      0.246990000000     0.499620000000     0.319990000000     0.0392152  
H138     H      0.216610000000     0.530640000000     0.289150000000     0.0393189  
H139     H      0.268810000000     0.509770000000     0.212240000000     0.039255   
H140     H      0.299400000000     0.478890000000     0.243130000000     0.039063   
H141     H      0.219450000000     0.576530000000     0.261680000000     0.048215   
H142     H      0.188070000000     0.607150000000     0.231370000000     0.0395602  
H143     H      0.188010000000     0.542320000000     0.161980000000     0.0383065  
H144     H      0.219110000000     0.511480000000     0.192480000000     0.0479534  
H145     H      0.959880000000     0.315760000000     0.877180000000     0.0393239  
H146     H      0.990400000000     0.284430000000     0.846680000000     0.0481054  
H147     H      0.937490000000     0.303550000000     0.769770000000     0.0479529  
H148     H      0.906710000000     0.334540000000     0.800400000000     0.0387361  
H149     H      0.025490000000     0.287880000000     0.805950000000     0.039248   
H150     H      0.056130000000     0.256770000000     0.775430000000     0.0391688  
H151     H      0.980100000000     0.221020000000     0.733150000000     0.0391557  
H152     H      0.949480000000     0.252220000000     0.763600000000     0.0392671  
H153     H      0.068840000000     0.206160000000     0.768890000000     0.0479268  
H154     H      0.099730000000     0.175470000000     0.738100000000     0.0384279  
H155     H      0.045170000000     0.192580000000     0.661950000000     0.0389258  
H156     H      0.014620000000     0.223750000000     0.692530000000     0.0480749  
H157     H      0.799790000000     0.364610000000     0.964350000000     0.0391667  
H158     H      0.769510000000     0.334480000000     0.996340000000     0.0481347  
H159     H      0.816830000000     0.258590000000     0.968020000000     0.0480235  
H160     H      0.847500000000     0.288840000000     0.936600000000     0.0387147  
H161     H      0.732130000000     0.297920000000     0.993040000000     0.0391184  
H162     H      0.701610000000     0.267760000000     0.024630000000     0.0391978  
H163     H      0.776430000000     0.217610000000     0.050560000000     0.0391467  
H164     H      0.807140000000     0.248560000000     0.019990000000     0.0391551  
H165     H      0.682860000000     0.218920000000     0.026500000000     0.048116   
H166     H      0.652230000000     0.187630000000     0.056840000000     0.0397102  
H167     H      0.717430000000     0.186720000000     0.125790000000     0.0384555  
H168     H      0.747840000000     0.218600000000     0.095760000000     0.0479514  
H169     H      0.850580000000     0.472610000000     0.848280000000     0.0384633  
H170     H      0.819920000000     0.503310000000     0.817230000000     0.0480424  
H171     H      0.766590000000     0.429360000000     0.795690000000     0.0481136  
H172     H      0.797520000000     0.398600000000     0.826380000000     0.0388271  
H173     H      0.770710000000     0.523100000000     0.816890000000     0.0392245  
H174     H      0.739490000000     0.553730000000     0.786460000000     0.0392213  
H175     H      0.737130000000     0.487490000000     0.718490000000     0.039179   
H176     H      0.768220000000     0.456830000000     0.749000000000     0.0392837  
H177     H      0.739890000000     0.581560000000     0.740630000000     0.047967   
H178     H      0.708370000000     0.612090000000     0.710370000000     0.0392788  
H179     H      0.657290000000     0.537210000000     0.686720000000     0.0391363  
H180     H      0.688370000000     0.506760000000     0.717490000000     0.0478973  
H181     H      0.043870000000     0.570620000000     0.125500000000     0.0385169  
H182     H      0.012750000000     0.540020000000     0.094770000000     0.0479708  
H183     H      0.076090000000     0.542680000000     0.024010000000     0.048156   
H184     H      0.107050000000     0.573500000000     0.054610000000     0.0396566  
H185     H      0.011780000000     0.490600000000     0.073430000000     0.0393002  
H186     H      0.980730000000     0.460350000000     0.042400000000     0.0390819  
H187     H      0.997820000000     0.515970000000     0.966970000000     0.0391714  
H188     H      0.029130000000     0.545950000000     0.997940000000     0.0393105  
H189     H      0.934800000000     0.460970000000     0.017010000000     0.0478609  
H190     H      0.903890000000     0.430580000000     0.985980000000     0.0388512  
H191     H      0.964410000000     0.439040000000     0.913150000000     0.0389717  
H192     H      0.995760000000     0.468770000000     0.944380000000     0.0479416  
In1      In     0.878460000000     0.380800000000     0.893770000000     2.39299    
In2      In     0.130170000000     0.629120000000     0.143640000000     2.39136    
In3      In     0.379340000000     0.880190000000     0.894320000000     2.39289    
In4      In     0.630770000000     0.128810000000     0.144110000000     2.39188    
In5      In     0.378730000000     0.377320000000     0.393200000000     2.39112    
In6      In     0.627130000000     0.628980000000     0.643100000000     2.39216    
In7      In     0.879580000000     0.877850000000     0.394250000000     2.3913     
In8      In     0.127830000000     0.129190000000     0.644570000000     2.39151    
O1       O      0.840770000000     0.374250000000     0.926060000000    -0.485029   
O2       O      0.865300000000     0.337280000000     0.913890000000    -0.490822   
O3       O      0.866790000000     0.424170000000     0.872320000000    -0.492489   
O4       O      0.918210000000     0.409320000000     0.901200000000    -0.485675   
O5       O      0.891050000000     0.360180000000     0.849310000000    -0.49011    
O6       O      0.890170000000     0.402410000000     0.937960000000    -0.489627   
O7       O      0.840040000000     0.388070000000     0.862560000000    -0.48739    
O8       O      0.916540000000     0.349960000000     0.887250000000    -0.484266   
O9       O      0.138920000000     0.656910000000     0.102580000000    -0.482093   
O10      O      0.171490000000     0.655330000000     0.135890000000    -0.491169   
O11      O      0.101570000000     0.637520000000     0.184210000000    -0.48233    
O12      O      0.088860000000     0.602870000000     0.135940000000    -0.491121   
O13      O      0.157960000000     0.620200000000     0.184670000000    -0.484157   
O14      O      0.121060000000     0.601860000000     0.102250000000    -0.482338   
O15      O      0.104880000000     0.670940000000     0.151940000000    -0.491673   
O16      O      0.156540000000     0.587820000000     0.151180000000    -0.492466   
O17      O      0.419710000000     0.907830000000     0.901890000000    -0.486226   
O18      O      0.391630000000     0.901190000000     0.938660000000    -0.48718    
O19      O      0.416370000000     0.848070000000     0.887960000000    -0.484366   
O20      O      0.364040000000     0.836240000000     0.911600000000    -0.489507   
O21      O      0.367800000000     0.923640000000     0.872900000000    -0.493646   
O22      O      0.343530000000     0.873780000000     0.928820000000    -0.482866   
O23      O      0.392830000000     0.860980000000     0.849520000000    -0.491061   
O24      O      0.340120000000     0.888020000000     0.864300000000    -0.490258   
O25      O      0.658740000000     0.119910000000     0.185020000000    -0.482492   
O26      O      0.657210000000     0.087560000000     0.151480000000    -0.492003   
O27      O      0.604280000000     0.169950000000     0.152000000000    -0.492047   
O28      O      0.639390000000     0.157070000000     0.103340000000    -0.482326   
O29      O      0.621940000000     0.101440000000     0.102750000000    -0.482946   
O30      O      0.672050000000     0.155150000000     0.136510000000    -0.491584   
O31      O      0.602990000000     0.137330000000     0.185250000000    -0.482846   
O32      O      0.589760000000     0.102080000000     0.136460000000    -0.491953   
O33      O      0.336040000000     0.367170000000     0.416840000000    -0.494481   
O34      O      0.370190000000     0.336860000000     0.421300000000    -0.491878   
O35      O      0.385190000000     0.342490000000     0.357680000000    -0.479883   
O36      O      0.356490000000     0.388680000000     0.349180000000    -0.48584    
O37      O      0.396610000000     0.392130000000     0.438110000000    -0.492186   
O38      O      0.352880000000     0.418730000000     0.384660000000    -0.487767   
O39      O      0.422720000000     0.360760000000     0.377450000000    -0.486526   
O40      O      0.412790000000     0.412620000000     0.399110000000    -0.483119   
O41      O      0.590100000000     0.596870000000     0.636460000000    -0.485944   
O42      O      0.613860000000     0.609680000000     0.598200000000    -0.492027   
O43      O      0.614350000000     0.648870000000     0.687920000000    -0.489964   
O44      O      0.640750000000     0.585370000000     0.662510000000    -0.488937   
O45      O      0.666960000000     0.636500000000     0.613880000000    -0.48693    
O46      O      0.664900000000     0.622470000000     0.675270000000    -0.482744   
O47      O      0.588480000000     0.659060000000     0.650340000000    -0.486838   
O48      O      0.638550000000     0.671960000000     0.620750000000    -0.490867   
O49      O      0.913370000000     0.913360000000     0.400500000000    -0.482521   
O50      O      0.898070000000     0.891750000000     0.439230000000    -0.491654   
O51      O      0.857070000000     0.888760000000     0.350270000000    -0.488709   
O52      O      0.885880000000     0.841390000000     0.360480000000    -0.480527   
O53      O      0.837040000000     0.868000000000     0.418260000000    -0.493886   
O54      O      0.923410000000     0.862920000000     0.376400000000    -0.486713   
O55      O      0.853400000000     0.919050000000     0.385520000000    -0.487737   
O56      O      0.871170000000     0.837610000000     0.422650000000    -0.490082   
O57      O      0.167570000000     0.136620000000     0.615200000000    -0.486204   
O58      O      0.138740000000     0.171870000000     0.621390000000    -0.491726   
O59      O      0.166070000000     0.122640000000     0.676190000000    -0.482235   
O60      O      0.115870000000     0.150660000000     0.688860000000    -0.490845   
O61      O      0.114920000000     0.109420000000     0.599770000000    -0.491245   
O62      O      0.088460000000     0.158300000000     0.651820000000    -0.487774   
O63      O      0.140680000000     0.085850000000     0.665170000000    -0.488502   
O64      O      0.091100000000     0.096740000000     0.638050000000    -0.484572   


