data_structure

_audit_creation_method RASPA-1.0
_audit_creation_date 2023-6-5
_audit_author_name 'Poobodin Mano'

_cell_length_a    56.1058
_cell_length_b    56.6212
_cell_length_c    31.553
_cell_angle_alpha 89.7884
_cell_angle_beta  90.2116
_cell_angle_gamma 89.9997
_cell_volume      100236

_symmetry_cell_setting          triclinic
_symmetry_space_group_name_Hall 'P 1'
_symmetry_space_group_name_H-M  'P 1'
_symmetry_Int_Tables_number     1

_symmetry_equiv_pos_as_xyz 'x,y,z'

loop_
_atom_site_label
_atom_site_type_symbol
_atom_site_fract_x
_atom_site_fract_y
_atom_site_fract_z
_atom_site_charge
C1       C      0.338690000000     0.392970000000     0.000650000000     0.358856   
C2       C      0.328220000000     0.324140000000     0.919990000000     0.360661   
C3       C      0.393960000000     0.342530000000     0.981870000000     0.358064   
C4       C      0.324550000000     0.325910000000     0.056680000000     0.355236   
C5       C      0.339090000000     0.645850000000     0.002530000000     0.360728   
C6       C      0.335440000000     0.714680000000     0.071440000000     0.358183   
C7       C      0.400160000000     0.695430000000     0.002400000000     0.365471   
C8       C      0.332430000000     0.711280000000     0.931900000000     0.362642   
C9       C      0.650180000000     0.342290000000     0.982460000000     0.361494   
C10      C      0.717810000000     0.324840000000     0.924050000000     0.35969    
C11      C      0.706750000000     0.393690000000     0.997800000000     0.358148   
C12      C      0.718520000000     0.325970000000     0.059390000000     0.355845   
C13      C      0.711550000000     0.646850000000     0.005900000000     0.359409   
C14      C      0.723990000000     0.715890000000     0.933160000000     0.359025   
C15      C      0.656590000000     0.697970000000     0.994510000000     0.356753   
C16      C      0.724930000000     0.712850000000     0.071210000000     0.361527   
C17      C      0.843800000000     0.148770000000     0.496910000000     0.362858   
C18      C      0.826310000000     0.216430000000     0.560380000000     0.36393    
C19      C      0.895410000000     0.206090000000     0.491090000000     0.356605   
C20      C      0.827330000000     0.216140000000     0.424390000000     0.354695   
C21      C      0.899990000000     0.842480000000     0.500540000000     0.357418   
C22      C      0.831310000000     0.826350000000     0.568900000000     0.360164   
C23      C      0.847180000000     0.894610000000     0.501790000000     0.364212   
C24      C      0.831650000000     0.824950000000     0.434270000000     0.361048   
C25      C      0.156410000000     0.839440000000     0.499560000000     0.363054   
C26      C      0.226610000000     0.824010000000     0.434070000000     0.359664   
C27      C      0.208730000000     0.891750000000     0.502130000000     0.357384   
C28      C      0.226250000000     0.822650000000     0.566900000000     0.35906    
C29      C      0.150980000000     0.199900000000     0.482850000000     0.358372   
C30      C      0.220300000000     0.211970000000     0.558020000000     0.360195   
C31      C      0.204250000000     0.145820000000     0.494050000000     0.360622   
C32      C      0.217710000000     0.214730000000     0.420580000000     0.357562   
C33      C      0.210330000000     0.917790000000     0.502730000000    -0.100165   
C34      C      0.205520000000     0.930300000000     0.540090000000     0.0230136  
C35      C      0.206280000000     0.954970000000     0.540420000000    -0.0687679  
C36      C      0.211760000000     0.967690000000     0.503340000000     0.0300831  
C37      C      0.216830000000     0.955100000000     0.466080000000    -0.0685665  
C38      C      0.216170000000     0.930410000000     0.465810000000     0.0227935  
C39      C      0.211710000000     0.993970000000     0.503320000000     0.000407524
C40      C      0.194230000000     0.006510000000     0.525820000000    -0.0366732  
C41      C      0.193840000000     0.031180000000     0.525180000000    -0.0368728  
C42      C      0.210860000000     0.043920000000     0.501870000000     0.000368513
C43      C      0.228420000000     0.031440000000     0.479540000000    -0.0369082  
C44      C      0.228880000000     0.006750000000     0.480330000000    -0.0367351  
C45      C      0.209950000000     0.070120000000     0.500190000000     0.0303753  
C46      C      0.205430000000     0.083290000000     0.537000000000    -0.0692033  
C47      C      0.203890000000     0.107920000000     0.535130000000     0.023252   
C48      C      0.206700000000     0.119870000000     0.496380000000    -0.101518   
C49      C      0.211430000000     0.106750000000     0.459650000000     0.0240316  
C50      C      0.213090000000     0.082140000000     0.461550000000    -0.0691974  
C51      C      0.926230000000     0.840310000000     0.500310000000    -0.0993981  
C52      C      0.939450000000     0.848720000000     0.465690000000     0.0230331  
C53      C      0.964300000000     0.847050000000     0.465660000000    -0.0687278  
C54      C      0.976480000000     0.836950000000     0.500290000000     0.0300162  
C55      C      0.963210000000     0.828420000000     0.534830000000    -0.0685979  
C56      C      0.938340000000     0.830060000000     0.534820000000     0.0225404  
C57      C      0.002940000000     0.835700000000     0.500550000000     0.000525955
C58      C      0.015440000000     0.829590000000     0.463650000000    -0.0369695  
C59      C      0.040350000000     0.829180000000     0.463510000000    -0.0367581  
C60      C      0.053340000000     0.834890000000     0.500260000000     0.000232245
C61      C      0.040830000000     0.840680000000     0.537330000000    -0.0367113  
C62      C      0.015920000000     0.841070000000     0.537480000000    -0.0369182  
C63      C      0.079830000000     0.835360000000     0.499660000000     0.0305848  
C64      C      0.092030000000     0.844970000000     0.464770000000    -0.0695494  
C65      C      0.116900000000     0.846060000000     0.464600000000     0.024431   
C66      C      0.130140000000     0.837570000000     0.499300000000    -0.103527   
C67      C      0.118030000000     0.827730000000     0.534020000000     0.0240471  
C68      C      0.093130000000     0.826650000000     0.534210000000    -0.069423   
C69      C      0.842310000000     0.122730000000     0.498300000000    -0.104651   
C70      C      0.827910000000     0.110360000000     0.469420000000     0.0240946  
C71      C      0.827440000000     0.085650000000     0.469800000000    -0.0695763  
C72      C      0.841300000000     0.072840000000     0.499200000000     0.0306578  
C73      C      0.855290000000     0.085340000000     0.528620000000    -0.0698725  
C74      C      0.855850000000     0.109980000000     0.528070000000     0.0245428  
C75      C      0.841570000000     0.046570000000     0.498880000000     0.000141909
C76      C      0.820570000000     0.033600000000     0.491670000000    -0.0366606  
C77      C      0.820960000000     0.008890000000     0.491960000000    -0.036879   
C78      C      0.842330000000     0.996640000000     0.499680000000     0.000240458
C79      C      0.863340000000     0.009580000000     0.506520000000    -0.0369538  
C80      C      0.862980000000     0.034230000000     0.506000000000    -0.0366554  
C81      C      0.842840000000     0.970430000000     0.500820000000     0.0307973  
C82      C      0.830810000000     0.957140000000     0.469880000000    -0.0695831  
C83      C      0.832060000000     0.932460000000     0.470290000000     0.024247   
C84      C      0.845210000000     0.920630000000     0.501840000000    -0.103258   
C85      C      0.856900000000     0.933900000000     0.533170000000     0.0247926  
C86      C      0.855780000000     0.958540000000     0.532600000000    -0.0699014  
C87      C      0.921480000000     0.209640000000     0.489440000000    -0.101172   
C88      C      0.935560000000     0.205730000000     0.525680000000     0.0234039  
C89      C      0.960360000000     0.207420000000     0.523540000000    -0.0689406  
C90      C      0.971650000000     0.213140000000     0.485110000000     0.0300301  
C91      C      0.957480000000     0.217660000000     0.449110000000    -0.0688731  
C92      C      0.932650000000     0.215900000000     0.451250000000     0.0221979  
C93      C      0.998110000000     0.213400000000     0.482330000000     0.000412851
C94      C      0.012020000000     0.222490000000     0.515630000000    -0.0368216  
C95      C      0.036890000000     0.221370000000     0.514120000000    -0.0368009  
C96      C      0.048450000000     0.211140000000     0.479230000000     0.000447718
C97      C      0.034540000000     0.202550000000     0.445470000000    -0.0368784  
C98      C      0.009680000000     0.203640000000     0.447020000000    -0.0367498  
C99      C      0.074840000000     0.208710000000     0.478710000000     0.0300967  
C100     C      0.089570000000     0.226870000000     0.494170000000    -0.068879   
C101     C      0.114330000000     0.224130000000     0.495100000000     0.0235761  
C102     C      0.124890000000     0.203190000000     0.480540000000    -0.100508   
C103     C      0.110240000000     0.185160000000     0.464580000000     0.0226444  
C104     C      0.085500000000     0.187880000000     0.463720000000    -0.0687166  
C105     C      0.819940000000     0.815100000000     0.605980000000    -0.10154    
C106     C      0.826870000000     0.792410000000     0.619240000000     0.0236344  
C107     C      0.816190000000     0.781830000000     0.654470000000    -0.0690332  
C108     C      0.798250000000     0.793660000000     0.677090000000     0.0303529  
C109     C      0.791300000000     0.816360000000     0.663630000000    -0.0690185  
C110     C      0.802070000000     0.826980000000     0.628530000000     0.0236101  
C111     C      0.786880000000     0.782390000000     0.714590000000     0.000362749
C112     C      0.781700000000     0.758080000000     0.714740000000    -0.0367367  
C113     C      0.771300000000     0.747430000000     0.750150000000    -0.0369399  
C114     C      0.765710000000     0.760840000000     0.786150000000     0.00035099 
C115     C      0.770670000000     0.785160000000     0.785940000000    -0.0368875  
C116     C      0.781200000000     0.795800000000     0.750620000000    -0.0366687  
C117     C      0.754980000000     0.749410000000     0.823950000000     0.0303787  
C118     C      0.763770000000     0.727670000000     0.838880000000    -0.0694068  
C119     C      0.753750000000     0.716870000000     0.874470000000     0.0240008  
C120     C      0.734630000000     0.727520000000     0.895760000000    -0.102439   
C121     C      0.725790000000     0.749240000000     0.880880000000     0.0229474  
C122     C      0.735920000000     0.760130000000     0.845400000000    -0.0692725  
C123     C      0.735900000000     0.723570000000     0.109170000000    -0.102992   
C124     C      0.760710000000     0.726550000000     0.111840000000     0.0238237  
C125     C      0.771020000000     0.737000000000     0.147560000000    -0.0696356  
C126     C      0.756690000000     0.744840000000     0.181150000000     0.0306271  
C127     C      0.731870000000     0.741790000000     0.178470000000    -0.0696602  
C128     C      0.721590000000     0.731190000000     0.142900000000     0.0242487  
C129     C      0.767580000000     0.756340000000     0.218720000000     0.000264008
C130     C      0.788220000000     0.746940000000     0.237640000000    -0.0369315  
C131     C      0.798490000000     0.757840000000     0.272940000000    -0.0367416  
C132     C      0.788440000000     0.778490000000     0.289960000000     0.00028883 
C133     C      0.767780000000     0.787870000000     0.270920000000    -0.0366485  
C134     C      0.757440000000     0.776890000000     0.235800000000    -0.0369072  
C135     C      0.799520000000     0.790260000000     0.327220000000     0.0304855  
C136     C      0.824460000000     0.791670000000     0.331210000000    -0.0691945  
C137     C      0.834880000000     0.802830000000     0.366090000000     0.0238469  
C138     C      0.820600000000     0.812960000000     0.397630000000    -0.102956   
C139     C      0.795700000000     0.811610000000     0.393770000000     0.0240643  
C140     C      0.785270000000     0.800320000000     0.359020000000    -0.0693344  
C141     C      0.728580000000     0.313220000000     0.886900000000    -0.0999041  
C142     C      0.748970000000     0.322860000000     0.867780000000     0.0237356  
C143     C      0.759010000000     0.312160000000     0.832250000000    -0.0689507  
C144     C      0.748930000000     0.291560000000     0.815120000000     0.0302875  
C145     C      0.728630000000     0.281810000000     0.834470000000    -0.0689144  
C146     C      0.718520000000     0.292570000000     0.869960000000     0.0228394  
C147     C      0.759590000000     0.280360000000     0.777130000000     0.000464092
C148     C      0.767460000000     0.294310000000     0.743010000000    -0.0369414  
C149     C      0.777880000000     0.283880000000     0.707570000000    -0.036641   
C150     C      0.780740000000     0.259250000000     0.705420000000     0.000252118
C151     C      0.772670000000     0.245270000000     0.739410000000    -0.0366523  
C152     C      0.762190000000     0.255710000000     0.774840000000    -0.0368864  
C153     C      0.792330000000     0.248240000000     0.668070000000     0.0306486  
C154     C      0.812340000000     0.258880000000     0.649240000000    -0.0694133  
C155     C      0.823300000000     0.248570000000     0.614210000000     0.0246788  
C156     C      0.814560000000     0.227360000000     0.597260000000    -0.10152    
C157     C      0.794590000000     0.216670000000     0.615990000000     0.0239478  
C158     C      0.783580000000     0.227010000000     0.651020000000    -0.0692136  
C159     C      0.729690000000     0.314600000000     0.096700000000    -0.0999271  
C160     C      0.720010000000     0.317700000000     0.137290000000     0.0232955  
C161     C      0.730650000000     0.307030000000     0.172620000000    -0.0688933  
C162     C      0.751050000000     0.292880000000     0.168010000000     0.0301282  
C163     C      0.760660000000     0.289700000000     0.127350000000    -0.0688373  
C164     C      0.750140000000     0.300540000000     0.092070000000     0.0222643  
C165     C      0.762300000000     0.281520000000     0.205520000000     0.000446792
C166     C      0.765820000000     0.294320000000     0.243070000000    -0.0369199  
C167     C      0.776430000000     0.283650000000     0.278400000000    -0.036707   
C168     C      0.783610000000     0.259860000000     0.277140000000     0.000548255
C169     C      0.780030000000     0.247060000000     0.239510000000    -0.0366586  
C170     C      0.769580000000     0.257790000000     0.204070000000    -0.0369824  
C171     C      0.794750000000     0.248460000000     0.314920000000     0.0298069  
C172     C      0.786660000000     0.253710000000     0.355970000000    -0.0681795  
C173     C      0.797260000000     0.243210000000     0.391480000000     0.0219217  
C174     C      0.816070000000     0.227090000000     0.386760000000    -0.0984593  
C175     C      0.824100000000     0.221660000000     0.345840000000     0.0227349  
C176     C      0.813610000000     0.232290000000     0.310310000000    -0.0682167  
C177     C      0.710590000000     0.419420000000     0.001210000000    -0.102174   
C178     C      0.710720000000     0.430490000000     0.040980000000     0.0226981  
C179     C      0.713330000000     0.454990000000     0.043990000000    -0.0691923  
C180     C      0.715910000000     0.468900000000     0.007280000000     0.0302939  
C181     C      0.716150000000     0.457720000000     0.967560000000    -0.0691946  
C182     C      0.713520000000     0.433250000000     0.964570000000     0.0238219  
C183     C      0.717550000000     0.495050000000     0.010140000000     0.00033979 
C184     C      0.702790000000     0.507610000000     0.038030000000    -0.0367475  
C185     C      0.703300000000     0.532280000000     0.038930000000    -0.03677    
C186     C      0.718570000000     0.544960000000     0.011940000000     0.000409728
C187     C      0.733760000000     0.532380000000     0.984790000000    -0.0369653  
C188     C      0.733250000000     0.507710000000     0.983900000000    -0.0369021  
C189     C      0.717930000000     0.571190000000     0.010810000000     0.0302595  
C190     C      0.715930000000     0.584320000000     0.048380000000    -0.0688299  
C191     C      0.714240000000     0.608960000000     0.046930000000     0.0226056  
C192     C      0.714450000000     0.620940000000     0.007860000000    -0.0997994  
C193     C      0.716800000000     0.607860000000     0.970370000000     0.0239265  
C194     C      0.718530000000     0.583270000000     0.971820000000    -0.0689716  
C195     C      0.321660000000     0.722130000000     0.893740000000    -0.101647   
C196     C      0.296860000000     0.725130000000     0.890800000000     0.0247879  
C197     C      0.286690000000     0.735820000000     0.855080000000    -0.0698658  
C198     C      0.301100000000     0.743460000000     0.821390000000     0.0308152  
C199     C      0.325890000000     0.740210000000     0.824120000000    -0.0695536  
C200     C      0.336090000000     0.729780000000     0.860080000000     0.0239871  
C201     C      0.290320000000     0.755000000000     0.783680000000     5.91187e-05
C202     C      0.273290000000     0.772980000000     0.788550000000    -0.0368163  
C203     C      0.263250000000     0.784020000000     0.753080000000    -0.0368483  
C204     C      0.269820000000     0.777120000000     0.712020000000     0.00016901 
C205     C      0.286720000000     0.759040000000     0.707120000000    -0.0369484  
C206     C      0.297000000000     0.748190000000     0.742630000000    -0.0369093  
C207     C      0.259010000000     0.788780000000     0.674440000000     0.0305303  
C208     C      0.257280000000     0.813510000000     0.672370000000    -0.069376   
C209     C      0.246890000000     0.824520000000     0.637160000000     0.02358    
C210     C      0.237770000000     0.811000000000     0.603580000000    -0.101553   
C211     C      0.239510000000     0.786270000000     0.605600000000     0.0237219  
C212     C      0.250170000000     0.775260000000     0.640590000000    -0.0694823  
C213     C      0.325720000000     0.726770000000     0.109030000000    -0.100597   
C214     C      0.331170000000     0.718720000000     0.150100000000     0.0231938  
C215     C      0.321230000000     0.729720000000     0.185510000000    -0.0688142  
C216     C      0.305650000000     0.749010000000     0.180580000000     0.0301278  
C217     C      0.300530000000     0.757250000000     0.139440000000    -0.0689177  
C218     C      0.310430000000     0.746240000000     0.104080000000     0.0229335  
C219     C      0.294370000000     0.760220000000     0.218060000000     0.000454353
C220     C      0.307440000000     0.763950000000     0.255560000000    -0.0368806  
C221     C      0.296680000000     0.774320000000     0.290820000000    -0.0368022  
C222     C      0.272590000000     0.781160000000     0.289410000000     0.000397864
C223     C      0.259570000000     0.777500000000     0.251850000000    -0.0367518  
C224     C      0.270310000000     0.767140000000     0.216650000000    -0.0367863  
C225     C      0.260980000000     0.791980000000     0.326940000000     0.0302369  
C226     C      0.273130000000     0.808700000000     0.351830000000    -0.0689016  
C227     C      0.262020000000     0.819070000000     0.386750000000     0.0232053  
C228     C      0.238540000000     0.812930000000     0.397490000000    -0.100858   
C229     C      0.226440000000     0.796130000000     0.372820000000     0.0234105  
C230     C      0.237540000000     0.785760000000     0.337980000000    -0.0690333  
C231     C      0.426440000000     0.696930000000     0.001900000000    -0.104658   
C232     C      0.440020000000     0.677010000000     0.991220000000     0.0249929  
C233     C      0.464860000000     0.678150000000     0.990670000000    -0.0700542  
C234     C      0.476750000000     0.699230000000     0.000990000000     0.0309384  
C235     C      0.463140000000     0.719240000000     0.011490000000    -0.0698312  
C236     C      0.438220000000     0.718090000000     0.011910000000     0.0249219  
C237     C      0.503250000000     0.700160000000     0.000790000000     0.000127743
C238     C      0.516620000000     0.680920000000     0.016110000000    -0.0367129  
C239     C      0.541470000000     0.681220000000     0.014450000000    -0.0369983  
C240     C      0.553600000000     0.700810000000     0.997610000000     0.000438791
C241     C      0.540310000000     0.720290000000     0.983100000000    -0.0369672  
C242     C      0.515380000000     0.719950000000     0.984590000000    -0.0366191  
C243     C      0.580010000000     0.700660000000     0.994950000000     0.0301275  
C244     C      0.592030000000     0.680290000000     0.981350000000    -0.0690083  
C245     C      0.616890000000     0.679650000000     0.980390000000     0.0225704  
C246     C      0.630310000000     0.699340000000     0.993150000000    -0.100723   
C247     C      0.618340000000     0.719900000000     0.005990000000     0.0231812  
C248     C      0.593410000000     0.720580000000     0.006760000000    -0.0688569  
C249     C      0.232020000000     0.222600000000     0.595370000000    -0.102543   
C250     C      0.218880000000     0.227400000000     0.632140000000     0.0240089  
C251     C      0.229850000000     0.237830000000     0.667230000000    -0.0693134  
C252     C      0.254220000000     0.243640000000     0.666350000000     0.0304093  
C253     C      0.267370000000     0.238670000000     0.629580000000    -0.0692816  
C254     C      0.256390000000     0.228270000000     0.594460000000     0.0231895  
C255     C      0.265780000000     0.255050000000     0.703480000000     0.000291496
C256     C      0.260200000000     0.247820000000     0.744950000000    -0.0367223  
C257     C      0.270750000000     0.258820000000     0.779860000000    -0.0367663  
C258     C      0.287160000000     0.277320000000     0.774160000000     0.000297419
C259     C      0.292860000000     0.284460000000     0.732680000000    -0.0368061  
C260     C      0.282300000000     0.273460000000     0.697770000000    -0.0367488  
C261     C      0.298080000000     0.289290000000     0.811340000000     0.030515   
C262     C      0.305360000000     0.276190000000     0.847070000000    -0.0695627  
C263     C      0.315260000000     0.287510000000     0.882280000000     0.0235901  
C264     C      0.318120000000     0.312150000000     0.882500000000    -0.103579   
C265     C      0.311020000000     0.325250000000     0.846760000000     0.024237   
C266     C      0.301090000000     0.313950000000     0.811570000000    -0.0694083  
C267     C      0.312960000000     0.314680000000     0.093570000000    -0.100018   
C268     C      0.291130000000     0.323210000000     0.108890000000     0.0219844  
C269     C      0.280260000000     0.312530000000     0.143870000000    -0.0686192  
C270     C      0.290990000000     0.293060000000     0.164150000000     0.0299578  
C271     C      0.312840000000     0.284570000000     0.148730000000    -0.0687254  
C272     C      0.323710000000     0.295270000000     0.113850000000     0.0229982  
C273     C      0.279520000000     0.281640000000     0.201320000000     0.000498469
C274     C      0.269020000000     0.295350000000     0.233270000000    -0.0368184  
C275     C      0.258720000000     0.284580000000     0.268680000000    -0.0368227  
C276     C      0.258680000000     0.259850000000     0.272920000000     0.000387226
C277     C      0.268970000000     0.246150000000     0.240740000000    -0.0367594  
C278     C      0.279280000000     0.256920000000     0.205380000000    -0.0369299  
C279     C      0.248140000000     0.248350000000     0.310910000000     0.0301854  
C280     C      0.226660000000     0.256660000000     0.328200000000    -0.0688823  
C281     C      0.216780000000     0.245770000000     0.363880000000     0.0224642  
C282     C      0.228170000000     0.226350000000     0.383010000000    -0.100954   
C283     C      0.249650000000     0.218070000000     0.365850000000     0.0235988  
C284     C      0.259530000000     0.228950000000     0.330200000000    -0.0689996  
C285     C      0.623990000000     0.340520000000     0.978760000000    -0.103257   
C286     C      0.611710000000     0.353370000000     0.947430000000     0.0240598  
C287     C      0.586860000000     0.352370000000     0.944810000000    -0.0694153  
C288     C      0.573700000000     0.338670000000     0.973750000000     0.0304674  
C289     C      0.586100000000     0.325610000000     0.004830000000    -0.0691528  
C290     C      0.610980000000     0.326440000000     0.007160000000     0.0239681  
C291     C      0.547160000000     0.338450000000     0.972230000000     0.000236967
C292     C      0.534380000000     0.359190000000     0.962520000000    -0.0365501  
C293     C      0.509480000000     0.359200000000     0.962250000000    -0.0369853  
C294     C      0.496750000000     0.338550000000     0.972080000000     0.000434346
C295     C      0.509430000000     0.317780000000     0.981470000000    -0.0370927  
C296     C      0.534340000000     0.317690000000     0.981330000000    -0.0366012  
C297     C      0.470340000000     0.338890000000     0.973710000000     0.0302641  
C298     C      0.457000000000     0.349940000000     0.941470000000    -0.0691862  
C299     C      0.432130000000     0.350810000000     0.943740000000     0.0231288  
C300     C      0.420150000000     0.340890000000     0.978530000000    -0.10069    
C301     C      0.433470000000     0.329730000000     0.010630000000     0.023439   
C302     C      0.458310000000     0.328630000000     0.008140000000    -0.0689781  
C303     C      0.334070000000     0.620230000000     0.003260000000    -0.101616   
C304     C      0.326150000000     0.609110000000     0.040500000000     0.0230804  
C305     C      0.323240000000     0.584580000000     0.041950000000    -0.0690081  
C306     C      0.328230000000     0.570670000000     0.006200000000     0.0303506  
C307     C      0.335560000000     0.581960000000     0.968660000000    -0.0691566  
C308     C      0.338400000000     0.606450000000     0.967190000000     0.0242439  
C309     C      0.326910000000     0.544450000000     0.008410000000     0.000406643
C310     C      0.335220000000     0.532270000000     0.044470000000    -0.0366707  
C311     C      0.335640000000     0.507590000000     0.045370000000    -0.0368868  
C312     C      0.327830000000     0.494480000000     0.010190000000     0.00052056 
C313     C      0.318930000000     0.506650000000     0.974580000000    -0.0367759  
C314     C      0.318440000000     0.531330000000     0.973730000000    -0.0368163  
C315     C      0.329900000000     0.468270000000     0.009870000000     0.03014    
C316     C      0.312110000000     0.454250000000     0.991040000000    -0.0689135  
C317     C      0.314770000000     0.429730000000     0.988650000000     0.0235164  
C318     C      0.335240000000     0.418710000000     0.005160000000    -0.100857   
C319     C      0.352790000000     0.432610000000     0.024790000000     0.0227622  
C320     C      0.350180000000     0.457120000000     0.027040000000    -0.0688148  
H1       H      0.201080000000     0.921040000000     0.569110000000     0.0396199  
H2       H      0.202660000000     0.964070000000     0.569830000000     0.047798   
H3       H      0.220810000000     0.964310000000     0.436810000000     0.0478459  
H4       H      0.219880000000     0.921240000000     0.436500000000     0.0392668  
H5       H      0.180480000000     0.997260000000     0.543260000000     0.0390413  
H6       H      0.179860000000     0.040270000000     0.542190000000     0.0393708  
H7       H      0.241970000000     0.040780000000     0.461740000000     0.0393108  
H8       H      0.242830000000     0.997690000000     0.463200000000     0.0391934  
H9       H      0.203190000000     0.074550000000     0.567320000000     0.0479867  
H10      H      0.200290000000     0.117570000000     0.563980000000     0.0382239  
H11      H      0.213660000000     0.115480000000     0.429310000000     0.0397002  
H12      H      0.216330000000     0.072480000000     0.432570000000     0.0482551  
H13      H      0.930620000000     0.856760000000     0.438680000000     0.039563   
H14      H      0.974000000000     0.854080000000     0.438810000000     0.0478967  
H15      H      0.972030000000     0.820300000000     0.561770000000     0.0479759  
H16      H      0.928610000000     0.823360000000     0.561910000000     0.0396728  
H17      H      0.005970000000     0.824980000000     0.434880000000     0.0393669  
H18      H      0.049430000000     0.824260000000     0.434630000000     0.0392676  
H19      H      0.050290000000     0.845500000000     0.566000000000     0.0391425  
H20      H      0.006840000000     0.846170000000     0.566260000000     0.0392448  
H21      H      0.082330000000     0.852130000000     0.437890000000     0.0480179  
H22      H      0.125740000000     0.853800000000     0.437430000000     0.0386362  
H23      H      0.127770000000     0.820990000000     0.561180000000     0.0385012  
H24      H      0.084290000000     0.818870000000     0.561350000000     0.0480808  
H25      H      0.817330000000     0.119750000000     0.446040000000     0.037858   
H26      H      0.816650000000     0.076600000000     0.446430000000     0.0479482  
H27      H      0.865810000000     0.076080000000     0.552240000000     0.0479839  
H28      H      0.866990000000     0.119040000000     0.550930000000     0.0386384  
H29      H      0.803720000000     0.042520000000     0.486570000000     0.0390999  
H30      H      0.804440000000     0.999370000000     0.486970000000     0.0394048  
H31      H      0.880170000000     0.000640000000     0.511780000000     0.039325   
H32      H      0.879600000000     0.043610000000     0.510740000000     0.0389844  
H33      H      0.820860000000     0.965830000000     0.444810000000     0.0482865  
H34      H      0.822870000000     0.922670000000     0.445740000000     0.0384465  
H35      H      0.867120000000     0.925270000000     0.557960000000     0.0384874  
H36      H      0.864970000000     0.968290000000     0.557200000000     0.0482872  
H37      H      0.927450000000     0.200810000000     0.555540000000     0.0399442  
H38      H      0.970720000000     0.203530000000     0.551740000000     0.0480687  
H39      H      0.965570000000     0.222440000000     0.419180000000     0.0477995  
H40      H      0.922240000000     0.219120000000     0.422830000000     0.0388503  
H41      H      0.003690000000     0.230380000000     0.543070000000     0.0390978  
H42      H      0.047030000000     0.227970000000     0.540830000000     0.0392262  
H43      H      0.042870000000     0.194850000000     0.417870000000     0.0391269  
H44      H      0.999530000000     0.196250000000     0.421000000000     0.0391077  
H45      H      0.081960000000     0.243260000000     0.505440000000     0.0480416  
H46      H      0.125190000000     0.238370000000     0.507440000000     0.0399009  
H47      H      0.117860000000     0.168790000000     0.453260000000     0.0387982  
H48      H      0.074690000000     0.173390000000     0.452190000000     0.047828   
H49      H      0.840680000000     0.782870000000     0.602580000000     0.0392952  
H50      H      0.822240000000     0.764490000000     0.664300000000     0.0479435  
H51      H      0.777310000000     0.825850000000     0.679890000000     0.0478896  
H52      H      0.796290000000     0.844460000000     0.618930000000     0.0388965  
H53      H      0.785420000000     0.747290000000     0.687290000000     0.0390581  
H54      H      0.767370000000     0.728710000000     0.749140000000     0.0393804  
H55      H      0.766840000000     0.795900000000     0.813430000000     0.0393764  
H56      H      0.785270000000     0.814480000000     0.751870000000     0.0392132  
H57      H      0.778620000000     0.719130000000     0.823330000000     0.0483236  
H58      H      0.760970000000     0.700140000000     0.885250000000     0.0398781  
H59      H      0.711040000000     0.757830000000     0.896640000000     0.0379408  
H60      H      0.728630000000     0.776780000000     0.834400000000     0.0480307  
H61      H      0.772180000000     0.720860000000     0.086300000000     0.0380623  
H62      H      0.790170000000     0.739310000000     0.148560000000     0.0482441  
H63      H      0.720410000000     0.747430000000     0.204060000000     0.0483447  
H64      H      0.702400000000     0.729110000000     0.141740000000     0.0392708  
H65      H      0.796250000000     0.730950000000     0.225510000000     0.0394279  
H66      H      0.814140000000     0.749890000000     0.287200000000     0.0390657  
H67      H      0.759790000000     0.803960000000     0.282690000000     0.0391824  
H68      H      0.741720000000     0.784730000000     0.221520000000     0.0393833  
H69      H      0.835990000000     0.784450000000     0.307040000000     0.0479191  
H70      H      0.854140000000     0.803690000000     0.368130000000     0.0390699  
H71      H      0.784240000000     0.819170000000     0.417730000000     0.0381693  
H72      H      0.766020000000     0.799270000000     0.357330000000     0.0478782  
H73      H      0.757160000000     0.338730000000     0.880190000000     0.0403231  
H74      H      0.774850000000     0.319920000000     0.818450000000     0.0481836  
H75      H      0.720320000000     0.266080000000     0.821770000000     0.0479691  
H76      H      0.702780000000     0.284760000000     0.884010000000     0.0384012  
H77      H      0.765330000000     0.313320000000     0.743490000000     0.0393833  
H78      H      0.783490000000     0.295140000000     0.681630000000     0.0392313  
H79      H      0.774900000000     0.226270000000     0.739050000000     0.0391408  
H80      H      0.756570000000     0.244500000000     0.800840000000     0.0393291  
H81      H      0.819760000000     0.275040000000     0.661940000000     0.0481357  
H82      H      0.838730000000     0.257170000000     0.600550000000     0.0392211  
H83      H      0.787410000000     0.200340000000     0.603530000000     0.0383344  
H84      H      0.768030000000     0.218500000000     0.664430000000     0.0479566  
H85      H      0.704250000000     0.328430000000     0.141810000000     0.0401567  
H86      H      0.722720000000     0.309610000000     0.203510000000     0.0482717  
H87      H      0.776500000000     0.279080000000     0.122900000000     0.0481027  
H88      H      0.758000000000     0.297840000000     0.061160000000     0.0386966  
H89      H      0.760700000000     0.312740000000     0.244930000000     0.0394703  
H90      H      0.779300000000     0.294190000000     0.306530000000     0.039116   
H91      H      0.784960000000     0.228600000000     0.237580000000     0.0390972  
H92      H      0.766820000000     0.247400000000     0.175720000000     0.0394522  
H93      H      0.771920000000     0.265750000000     0.360730000000     0.0476178  
H94      H      0.790610000000     0.247640000000     0.422640000000     0.0390752  
H95      H      0.838650000000     0.209380000000     0.341250000000     0.0403181  
H96      H      0.820550000000     0.228080000000     0.279260000000     0.0477291  
H97      H      0.708580000000     0.420260000000     0.069800000000     0.0383243  
H98      H      0.713360000000     0.463030000000     0.075080000000     0.0477834  
H99      H      0.717780000000     0.467940000000     0.938630000000     0.0481061  
H100     H      0.713440000000     0.425220000000     0.933460000000     0.0398131  
H101     H      0.690260000000     0.498410000000     0.058250000000     0.0391768  
H102     H      0.691140000000     0.541440000000     0.059790000000     0.0392508  
H103     H      0.746020000000     0.541610000000     0.964110000000     0.0391968  
H104     H      0.745150000000     0.498550000000     0.962580000000     0.0391576  
H105     H      0.715670000000     0.575550000000     0.078940000000     0.0477839  
H106     H      0.712510000000     0.618590000000     0.076350000000     0.0383208  
H107     H      0.716970000000     0.616600000000     0.939770000000     0.0404643  
H108     H      0.719720000000     0.573690000000     0.942260000000     0.0481473  
H109     H      0.285300000000     0.719400000000     0.916280000000     0.0390934  
H110     H      0.267520000000     0.737930000000     0.853630000000     0.0486339  
H111     H      0.337430000000     0.746110000000     0.798740000000     0.0484977  
H112     H      0.355270000000     0.727670000000     0.861490000000     0.0381623  
H113     H      0.267950000000     0.778690000000     0.819840000000     0.0396269  
H114     H      0.250120000000     0.797790000000     0.757750000000     0.0396593  
H115     H      0.292210000000     0.753480000000     0.675830000000     0.0394087  
H116     H      0.309970000000     0.734280000000     0.737990000000     0.0394918  
H117     H      0.264150000000     0.824360000000     0.697860000000     0.0485034  
H118     H      0.245790000000     0.843620000000     0.636460000000     0.0394202  
H119     H      0.232640000000     0.775410000000     0.580140000000     0.0381193  
H120     H      0.251120000000     0.756160000000     0.641530000000     0.0484884  
H121     H      0.342860000000     0.703720000000     0.154880000000     0.0392637  
H122     H      0.325340000000     0.722750000000     0.216700000000     0.0479698  
H123     H      0.288920000000     0.772300000000     0.134510000000     0.0479281  
H124     H      0.305990000000     0.752930000000     0.072820000000     0.039198   
H125     H      0.326060000000     0.759030000000     0.257580000000     0.0390787  
H126     H      0.307160000000     0.776690000000     0.319380000000     0.0390302  
H127     H      0.241070000000     0.782810000000     0.249480000000     0.0393025  
H128     H      0.259640000000     0.764280000000     0.188470000000     0.0392761  
H129     H      0.291100000000     0.814090000000     0.343920000000     0.0479864  
H130     H      0.271770000000     0.832000000000     0.405150000000     0.0389569  
H131     H      0.208370000000     0.790960000000     0.380440000000     0.0394182  
H132     H      0.227800000000     0.772680000000     0.319920000000     0.0481092  
H133     H      0.431460000000     0.660480000000     0.983080000000     0.0387988  
H134     H      0.474740000000     0.662540000000     0.981680000000     0.0481365  
H135     H      0.471740000000     0.735680000000     0.020000000000     0.0480807  
H136     H      0.428190000000     0.733730000000     0.020320000000     0.0376078  
H137     H      0.507890000000     0.665610000000     0.029640000000     0.0390465  
H138     H      0.551220000000     0.666140000000     0.026680000000     0.0393815  
H139     H      0.549160000000     0.735570000000     0.969660000000     0.0393742  
H140     H      0.505620000000     0.734960000000     0.972120000000     0.0392146  
H141     H      0.582190000000     0.664790000000     0.971430000000     0.0479926  
H142     H      0.625600000000     0.663580000000     0.970210000000     0.0391498  
H143     H      0.628230000000     0.735340000000     0.016010000000     0.0396572  
H144     H      0.584650000000     0.736480000000     0.017620000000     0.0481495  
H145     H      0.200050000000     0.223290000000     0.633710000000     0.0394841  
H146     H      0.219120000000     0.241700000000     0.694800000000     0.0481748  
H147     H      0.286230000000     0.242620000000     0.628050000000     0.048006   
H148     H      0.266990000000     0.224700000000     0.566590000000     0.0383452  
H149     H      0.247750000000     0.233520000000     0.750480000000     0.0391514  
H150     H      0.265770000000     0.253050000000     0.811370000000     0.0391145  
H151     H      0.305620000000     0.298470000000     0.727150000000     0.039216   
H152     H      0.286810000000     0.279640000000     0.666290000000     0.0391363  
H153     H      0.303610000000     0.257150000000     0.847710000000     0.0480044  
H154     H      0.320660000000     0.276930000000     0.909340000000     0.0379138  
H155     H      0.312940000000     0.344290000000     0.846080000000     0.0394495  
H156     H      0.295380000000     0.324610000000     0.784820000000     0.0482115  
H157     H      0.282420000000     0.338130000000     0.093830000000     0.0385354  
H158     H      0.263310000000     0.319330000000     0.154710000000     0.0477978  
H159     H      0.321720000000     0.269820000000     0.163980000000     0.0481373  
H160     H      0.340570000000     0.288350000000     0.102840000000     0.0408222  
H161     H      0.269190000000     0.314460000000     0.231350000000     0.039225   
H162     H      0.251220000000     0.295650000000     0.293160000000     0.0392021  
H163     H      0.268860000000     0.227040000000     0.242650000000     0.0392246  
H164     H      0.286860000000     0.245840000000     0.180980000000     0.0393279  
H165     H      0.217300000000     0.271390000000     0.313820000000     0.0478283  
H166     H      0.200160000000     0.252500000000     0.376360000000     0.0386027  
H167     H      0.258880000000     0.203190000000     0.380000000000     0.0400764  
H168     H      0.276270000000     0.222330000000     0.318060000000     0.048083   
H169     H      0.621300000000     0.364250000000     0.924910000000     0.0379954  
H170     H      0.577980000000     0.362310000000     0.919990000000     0.0477797  
H171     H      0.576600000000     0.315150000000     0.028060000000     0.0479285  
H172     H      0.619970000000     0.316430000000     0.031780000000     0.0388089  
H173     H      0.543590000000     0.375610000000     0.956100000000     0.0389658  
H174     H      0.500170000000     0.375550000000     0.955450000000     0.0395642  
H175     H      0.500060000000     0.301530000000     0.988660000000     0.0394809  
H176     H      0.543540000000     0.301300000000     0.988180000000     0.0390358  
H177     H      0.465810000000     0.357840000000     0.914410000000     0.0481177  
H178     H      0.422310000000     0.359520000000     0.918520000000     0.0379905  
H179     H      0.424720000000     0.321910000000     0.037820000000     0.0402272  
H180     H      0.468140000000     0.320200000000     0.033640000000     0.048475   
H181     H      0.322590000000     0.619300000000     0.068760000000     0.0387813  
H182     H      0.317230000000     0.576510000000     0.071180000000     0.0478959  
H183     H      0.339890000000     0.571810000000     0.940700000000     0.048122   
H184     H      0.344600000000     0.614510000000     0.938060000000     0.0393607  
H185     H      0.342080000000     0.541780000000     0.071610000000     0.0391983  
H186     H      0.342300000000     0.498790000000     0.073550000000     0.0390533  
H187     H      0.312970000000     0.497160000000     0.946760000000     0.0392389  
H188     H      0.311630000000     0.540130000000     0.945660000000     0.0390454  
H189     H      0.296110000000     0.462210000000     0.978060000000     0.0480516  
H190     H      0.300890000000     0.419450000000     0.973520000000     0.0399877  
H191     H      0.368800000000     0.424620000000     0.037680000000     0.0385036  
H192     H      0.364400000000     0.467370000000     0.041210000000     0.0478476  
In1      In     0.346100000000     0.346240000000     0.989220000000     2.39125    
In2      In     0.351990000000     0.691940000000     0.002270000000     2.39286    
In3      In     0.698020000000     0.346760000000     0.991070000000     2.38871    
In4      In     0.704540000000     0.693980000000     0.001210000000     2.39023    
In5      In     0.848110000000     0.196450000000     0.493350000000     2.38765    
In6      In     0.852080000000     0.847080000000     0.501130000000     2.39866    
In7      In     0.204450000000     0.844200000000     0.500650000000     2.39721    
In8      In     0.198570000000     0.193200000000     0.489150000000     2.39096    
O1       O      0.315550000000     0.343130000000     0.036850000000    -0.490329   
O2       O      0.344310000000     0.318980000000     0.042470000000    -0.477579   
O3       O      0.331490000000     0.346140000000     0.921430000000    -0.484017   
O4       O      0.324460000000     0.380060000000     0.980110000000    -0.479773   
O5       O      0.382920000000     0.337050000000     0.015220000000    -0.479339   
O6       O      0.356500000000     0.382270000000     0.015870000000    -0.493728   
O7       O      0.334050000000     0.313260000000     0.953330000000    -0.496525   
O8       O      0.380870000000     0.349900000000     0.952030000000    -0.491402   
O9       O      0.320160000000     0.701330000000     0.960260000000    -0.485629   
O10      O      0.354570000000     0.711450000000     0.938970000000    -0.491554   
O11      O      0.349560000000     0.697380000000     0.073990000000    -0.482466   
O12      O      0.337450000000     0.658740000000     0.034900000000    -0.484717   
O13      O      0.386840000000     0.712880000000     0.009630000000    -0.488034   
O14      O      0.346750000000     0.656310000000     0.970010000000    -0.488053   
O15      O      0.329840000000     0.720550000000     0.034130000000    -0.489254   
O16      O      0.389220000000     0.676440000000     0.995320000000    -0.496326   
O17      O      0.727840000000     0.325660000000     0.023090000000    -0.489897   
O18      O      0.698910000000     0.336800000000     0.061290000000    -0.476859   
O19      O      0.699010000000     0.317440000000     0.941520000000    -0.491552   
O20      O      0.662160000000     0.357320000000     0.962120000000    -0.494781   
O21      O      0.703590000000     0.380550000000     0.029580000000    -0.490383   
O22      O      0.662300000000     0.329330000000     0.006910000000    -0.485135   
O23      O      0.726670000000     0.343110000000     0.940640000000    -0.481502   
O24      O      0.705700000000     0.383180000000     0.962740000000    -0.48076    
O25      O      0.736700000000     0.707640000000     0.038590000000    -0.49422    
O26      O      0.702970000000     0.708400000000     0.068640000000    -0.486244   
O27      O      0.732420000000     0.697240000000     0.949090000000    -0.483993   
O28      O      0.710430000000     0.657980000000     0.971240000000    -0.479739   
O29      O      0.669540000000     0.714410000000     0.008560000000    -0.475932   
O30      O      0.709220000000     0.659520000000     0.038480000000    -0.489553   
O31      O      0.705720000000     0.723650000000     0.951600000000    -0.492006   
O32      O      0.667840000000     0.679800000000     0.983270000000    -0.492092   
O33      O      0.822410000000     0.222360000000     0.461700000000    -0.489158   
O34      O      0.842730000000     0.199950000000     0.421800000000    -0.474414   
O35      O      0.819590000000     0.197030000000     0.544780000000    -0.492807   
O36      O      0.831030000000     0.161370000000     0.472930000000    -0.487707   
O37      O      0.882190000000     0.207590000000     0.458830000000    -0.484957   
O38      O      0.858460000000     0.160170000000     0.519100000000    -0.494506   
O39      O      0.843880000000     0.225810000000     0.541950000000    -0.48675    
O40      O      0.884740000000     0.200150000000     0.524510000000    -0.480906   
O41      O      0.853820000000     0.825000000000     0.440740000000    -0.489469   
O42      O      0.819730000000     0.836050000000     0.461480000000    -0.490539   
O43      O      0.846190000000     0.815800000000     0.545840000000    -0.486731   
O44      O      0.887300000000     0.835170000000     0.530830000000    -0.482547   
O45      O      0.838660000000     0.881910000000     0.472690000000    -0.490239   
O46      O      0.888500000000     0.852000000000     0.470570000000    -0.486605   
O47      O      0.826920000000     0.847330000000     0.557790000000    -0.491138   
O48      O      0.857980000000     0.883350000000     0.530540000000    -0.493435   
O49      O      0.214600000000     0.811440000000     0.539290000000    -0.489326   
O50      O      0.227000000000     0.844670000000     0.561040000000    -0.486252   
O51      O      0.205310000000     0.819470000000     0.443860000000    -0.490688   
O52      O      0.167920000000     0.848520000000     0.469400000000    -0.491987   
O53      O      0.213880000000     0.879620000000     0.469970000000    -0.484422   
O54      O      0.169110000000     0.832550000000     0.530230000000    -0.490528   
O55      O      0.236810000000     0.838790000000     0.457870000000    -0.487193   
O56      O      0.201620000000     0.879890000000     0.533540000000    -0.486035   
O57      O      0.198610000000     0.221620000000     0.437440000000    -0.491193   
O58      O      0.227160000000     0.197060000000     0.438320000000    -0.48059    
O59      O      0.198600000000     0.206270000000     0.557610000000    -0.483902   
O60      O      0.164790000000     0.215010000000     0.499000000000    -0.478575   
O61      O      0.204790000000     0.157040000000     0.459470000000    -0.482522   
O62      O      0.161190000000     0.181530000000     0.469570000000    -0.492461   
O63      O      0.231120000000     0.208100000000     0.523810000000    -0.493379   
O64      O      0.200920000000     0.158490000000     0.526290000000    -0.492491   


