data_structure

_audit_creation_method RASPA-1.0
_audit_creation_date 2023-5-22
_audit_author_name 'Poobodin Mano'

_cell_length_a    32.4015
_cell_length_b    32.386
_cell_length_c    33.8834
_cell_angle_alpha 90.0277
_cell_angle_beta  90.4354
_cell_angle_gamma 120.097
_cell_volume      30760.7

_symmetry_cell_setting          triclinic
_symmetry_space_group_name_Hall 'P 1'
_symmetry_space_group_name_H-M  'P 1'
_symmetry_Int_Tables_number     1

_symmetry_equiv_pos_as_xyz 'x,y,z'

loop_
_atom_site_label
_atom_site_type_symbol
_atom_site_fract_x
_atom_site_fract_y
_atom_site_fract_z
_atom_site_charge
C1       C      0.496300000000     0.314150000000     0.132250000000     0.403284   
C2       C      0.500660000000     0.442110000000     0.194680000000     0.403939   
C3       C      0.625210000000     0.434900000000     0.138410000000     0.40359    
C4       C      0.500920000000     0.442350000000     0.076210000000     0.403197   
C5       C      0.312350000000     0.484350000000     0.387780000000     0.402936   
C6       C      0.442640000000     0.496030000000     0.325700000000     0.404074   
C7       C      0.429160000000     0.616860000000     0.384230000000     0.40342    
C8       C      0.443970000000     0.495860000000     0.444070000000     0.403018   
C9       C      0.809750000000     0.339800000000     0.130960000000     0.39954    
C10      C      0.937320000000     0.468780000000     0.083490000000     0.40857    
C11      C      0.802690000000     0.462300000000     0.142160000000     0.40751    
C12      C      0.921570000000     0.462370000000     0.206680000000     0.39947    
C13      C      0.167600000000     0.513880000000     0.391020000000     0.403274   
C14      C      0.041980000000     0.519560000000     0.449650000000     0.40654    
C15      C      0.177480000000     0.642180000000     0.395250000000     0.40181    
C16      C      0.051320000000     0.523490000000     0.327370000000     0.400193   
C17      C      0.650440000000     0.167160000000     0.129710000000     0.403519   
C18      C      0.527500000000     0.047260000000     0.197730000000     0.402322   
C19      C      0.526300000000     0.168050000000     0.132170000000     0.403724   
C20      C      0.521660000000     0.036750000000     0.075440000000     0.404981   
C21      C      0.455920000000     0.795280000000     0.382520000000     0.406506   
C22      C      0.462310000000     0.917940000000     0.317720000000     0.401253   
C23      C      0.337520000000     0.810020000000     0.393570000000     0.403287   
C24      C      0.470950000000     0.934450000000     0.439710000000     0.406998   
C25      C      0.547200000000     0.011660000000     0.254250000000    -0.0111478  
C26      C      0.466170000000     0.004090000000     0.248260000000    -0.0107111  
C27      C      0.523720000000     0.959250000000     0.266600000000    -0.0111138  
C28      C      0.442860000000     0.951560000000     0.259770000000    -0.0112141  
C29      C      0.530860000000     0.980140000000     0.032260000000    -0.0108285  
C30      C      0.458120000000     0.988840000000     0.026640000000    -0.0106719  
C31      C      0.535970000000     0.983470000000     0.487260000000    -0.0108431  
C32      C      0.463850000000     0.993010000000     0.481820000000    -0.0104518  
C33      C      0.244380000000     0.706210000000     0.432530000000    -0.010453   
C34      C      0.233120000000     0.713880000000     0.358610000000    -0.0102248  
C35      C      0.268100000000     0.760530000000     0.436080000000    -0.01076    
C36      C      0.256280000000     0.767750000000     0.364530000000    -0.0107468  
C37      C      0.776500000000     0.258580000000     0.158010000000    -0.012729   
C38      C      0.751540000000     0.272820000000     0.090270000000    -0.00893041 
C39      C      0.724140000000     0.221560000000     0.165220000000    -0.00867299 
C40      C      0.722000000000     0.218140000000     0.090090000000    -0.0124091  
C41      C      0.015440000000     0.545210000000     0.272210000000    -0.0113756  
C42      C      0.007570000000     0.463840000000     0.275060000000    -0.0106568  
C43      C      0.962940000000     0.522230000000     0.259700000000    -0.0110653  
C44      C      0.954910000000     0.441050000000     0.263760000000    -0.0112641  
C45      C      0.993380000000     0.534800000000     0.040430000000    -0.0109786  
C46      C      0.989430000000     0.455320000000     0.038740000000    -0.0105903  
C47      C      0.991670000000     0.535030000000     0.495190000000    -0.0108051  
C48      C      0.986470000000     0.454880000000     0.493700000000    -0.0105091  
C49      C      0.467960000000     0.736760000000     0.344670000000    -0.0108563  
C50      C      0.476720000000     0.741130000000     0.417950000000    -0.0110588  
C51      C      0.431950000000     0.683290000000     0.346580000000    -0.0106584  
C52      C      0.441000000000     0.687640000000     0.421250000000    -0.0106733  
C53      C      0.219800000000     0.495170000000     0.352160000000    -0.0100894  
C54      C      0.222710000000     0.496550000000     0.427850000000    -0.0102222  
C55      C      0.235680000000     0.458010000000     0.353130000000    -0.0105241  
C56      C      0.239020000000     0.459710000000     0.426140000000    -0.0104522  
C57      C      0.691860000000     0.438870000000     0.176880000000    -0.0104791  
C58      C      0.697720000000     0.451470000000     0.102480000000    -0.0108605  
C59      C      0.745160000000     0.475050000000     0.180390000000    -0.010515   
C60      C      0.751020000000     0.487200000000     0.107710000000    -0.010323   
C61      C      0.508570000000     0.222350000000     0.169560000000    -0.0104258  
C62      C      0.514650000000     0.226290000000     0.094340000000    -0.0103971  
C63      C      0.471150000000     0.237810000000     0.166480000000    -0.0105293  
C64      C      0.477190000000     0.241830000000     0.093500000000    -0.0106285  
C65      C      0.435610000000     0.430490000000     0.486820000000    -0.010194   
C66      C      0.511370000000     0.510120000000     0.487990000000    -0.0107571  
C67      C      0.435000000000     0.430130000000     0.031790000000    -0.01027    
C68      C      0.511860000000     0.508860000000     0.033200000000    -0.0108113  
C69      C      0.510060000000     0.509490000000     0.283210000000    -0.0107794  
C70      C      0.433120000000     0.430830000000     0.281940000000    -0.0104181  
C71      C      0.511770000000     0.508530000000     0.238070000000    -0.0106694  
C72      C      0.434070000000     0.430690000000     0.236950000000    -0.0103621  
C73      C      0.496300000000     0.314150000000     0.632250000000     0.403278   
C74      C      0.500660000000     0.442120000000     0.694680000000     0.403908   
C75      C      0.625210000000     0.434900000000     0.638420000000     0.403265   
C76      C      0.500920000000     0.442350000000     0.576210000000     0.403191   
C77      C      0.312350000000     0.484350000000     0.887780000000     0.402936   
C78      C      0.442640000000     0.496030000000     0.825700000000     0.404075   
C79      C      0.429160000000     0.616860000000     0.884230000000     0.403422   
C80      C      0.443970000000     0.495860000000     0.944070000000     0.403197   
C81      C      0.809750000000     0.339800000000     0.630960000000     0.399782   
C82      C      0.937320000000     0.468780000000     0.583490000000     0.408667   
C83      C      0.802690000000     0.462300000000     0.642160000000     0.407594   
C84      C      0.921560000000     0.462370000000     0.706680000000     0.399404   
C85      C      0.167600000000     0.513880000000     0.891030000000     0.403277   
C86      C      0.041980000000     0.519560000000     0.949650000000     0.406542   
C87      C      0.177480000000     0.642180000000     0.895260000000     0.401809   
C88      C      0.051320000000     0.523490000000     0.827370000000     0.400196   
C89      C      0.650440000000     0.167160000000     0.629710000000     0.403519   
C90      C      0.527500000000     0.047260000000     0.697730000000     0.402323   
C91      C      0.526300000000     0.168050000000     0.632170000000     0.403809   
C92      C      0.521660000000     0.036750000000     0.575440000000     0.4055     
C93      C      0.455920000000     0.795280000000     0.882520000000     0.406501   
C94      C      0.462310000000     0.917940000000     0.817720000000     0.401254   
C95      C      0.337520000000     0.810020000000     0.893570000000     0.403299   
C96      C      0.470950000000     0.934450000000     0.939710000000     0.40712    
C97      C      0.547200000000     0.011660000000     0.754250000000    -0.0110973  
C98      C      0.466170000000     0.004090000000     0.748260000000    -0.0107093  
C99      C      0.523720000000     0.959240000000     0.766600000000    -0.0111667  
C100     C      0.442860000000     0.951560000000     0.759770000000    -0.0112143  
C101     C      0.530860000000     0.980140000000     0.532260000000    -0.0108149  
C102     C      0.458120000000     0.988840000000     0.526640000000    -0.0106379  
C103     C      0.535970000000     0.983470000000     0.987260000000    -0.0108443  
C104     C      0.463850000000     0.993010000000     0.981820000000    -0.0104377  
C105     C      0.244380000000     0.706200000000     0.932530000000    -0.0104941  
C106     C      0.233120000000     0.713880000000     0.858610000000    -0.0102173  
C107     C      0.268100000000     0.760530000000     0.936080000000    -0.010726   
C108     C      0.256280000000     0.767750000000     0.864530000000    -0.0107459  
C109     C      0.776500000000     0.258580000000     0.658010000000    -0.0127488  
C110     C      0.751530000000     0.272820000000     0.590270000000    -0.00895197 
C111     C      0.724140000000     0.221560000000     0.665220000000    -0.0086663  
C112     C      0.722000000000     0.218140000000     0.590090000000    -0.0124099  
C113     C      0.015440000000     0.545200000000     0.772210000000    -0.0112857  
C114     C      0.007570000000     0.463840000000     0.775060000000    -0.0106483  
C115     C      0.962940000000     0.522230000000     0.759700000000    -0.0111113  
C116     C      0.954910000000     0.441050000000     0.763760000000    -0.0112923  
C117     C      0.993380000000     0.534800000000     0.540430000000    -0.0109532  
C118     C      0.989430000000     0.455320000000     0.538740000000    -0.0105804  
C119     C      0.991680000000     0.535030000000     0.995190000000    -0.0107625  
C120     C      0.986470000000     0.454880000000     0.993700000000    -0.0105013  
C121     C      0.467960000000     0.736760000000     0.844670000000    -0.0108582  
C122     C      0.476720000000     0.741130000000     0.917950000000    -0.0110735  
C123     C      0.431950000000     0.683290000000     0.846580000000    -0.0106576  
C124     C      0.441000000000     0.687640000000     0.921250000000    -0.0106666  
C125     C      0.219800000000     0.495170000000     0.852160000000    -0.01002    
C126     C      0.222710000000     0.496550000000     0.927850000000    -0.0102169  
C127     C      0.235680000000     0.458010000000     0.853120000000    -0.01059    
C128     C      0.239020000000     0.459710000000     0.926140000000    -0.0104613  
C129     C      0.691860000000     0.438870000000     0.676880000000    -0.0105087  
C130     C      0.697720000000     0.451470000000     0.602480000000    -0.0108654  
C131     C      0.745160000000     0.475050000000     0.680390000000    -0.0104892  
C132     C      0.751020000000     0.487200000000     0.607710000000    -0.0103239  
C133     C      0.508570000000     0.222350000000     0.669560000000    -0.0104061  
C134     C      0.514650000000     0.226290000000     0.594340000000    -0.01041    
C135     C      0.471150000000     0.237810000000     0.666480000000    -0.0105782  
C136     C      0.477190000000     0.241830000000     0.593500000000    -0.0105768  
C137     C      0.435610000000     0.430490000000     0.986820000000    -0.0101882  
C138     C      0.511370000000     0.510120000000     0.987990000000    -0.010747   
C139     C      0.435000000000     0.430130000000     0.531790000000    -0.010267   
C140     C      0.511860000000     0.508860000000     0.533200000000    -0.0108071  
C141     C      0.510060000000     0.509490000000     0.783210000000    -0.0107795  
C142     C      0.433120000000     0.430830000000     0.781940000000    -0.0104202  
C143     C      0.511770000000     0.508530000000     0.738060000000    -0.0106725  
C144     C      0.434070000000     0.430690000000     0.736950000000    -0.0103517  
H1       H      0.470450000000     0.025360000000     0.275340000000     0.0425795  
H2       H      0.557690000000     0.034030000000     0.281440000000     0.0420837  
H3       H      0.547830000000     0.954890000000     0.287540000000     0.0488477  
H4       H      0.441930000000     0.008720000000     0.227670000000     0.0495917  
H5       H      0.409110000000     0.941210000000     0.275560000000     0.0508891  
H6       H      0.433640000000     0.929830000000     0.232270000000     0.0420497  
H7       H      0.580260000000     0.021230000000     0.237670000000     0.0495565  
H8       H      0.519430000000     0.937450000000     0.239880000000     0.0418595  
H9       H      0.432940000000     0.950850000000     0.033900000000     0.0420588  
H10      H      0.510370000000     0.941760000000     0.040340000000     0.0416446  
H11      H      0.551630000000     0.961610000000     0.477290000000     0.049291   
H12      H      0.442010000000     0.010270000000     0.036690000000     0.0495866  
H13      H      0.428120000000     0.978390000000     0.467680000000     0.0489824  
H14      H      0.485180000000     0.031520000000     0.474260000000     0.0417758  
H15      H      0.566860000000     0.995740000000     0.046080000000     0.0490548  
H16      H      0.561290000000     0.021280000000     0.479550000000     0.0419179  
H17      H      0.260260000000     0.705960000000     0.346580000000     0.0420602  
H18      H      0.272800000000     0.696520000000     0.431880000000     0.0409619  
H19      H      0.294660000000     0.773420000000     0.460650000000     0.0483253  
H20      H      0.204160000000     0.702360000000     0.336130000000     0.0495597  
H21      H      0.273980000000     0.786330000000     0.336810000000     0.0504051  
H22      H      0.227680000000     0.776140000000     0.371060000000     0.0411069  
H23      H      0.222770000000     0.689840000000     0.459390000000     0.0482118  
H24      H      0.240110000000     0.769490000000     0.443480000000     0.0406265  
H25      H      0.727120000000     0.287490000000     0.087300000000     0.0454408  
H26      H      0.793090000000     0.277140000000     0.186290000000     0.0511459  
H27      H      0.707050000000     0.238810000000     0.181510000000     0.0468317  
H28      H      0.775270000000     0.285140000000     0.064140000000     0.0428702  
H29      H      0.696670000000     0.206150000000     0.064660000000     0.0488098  
H30      H      0.746420000000     0.203770000000     0.085670000000     0.0408277  
H31      H      0.795490000000     0.239730000000     0.148420000000     0.0413278  
H32      H      0.721980000000     0.192730000000     0.184450000000     0.0436651  
H33      H      0.028310000000     0.468820000000     0.247710000000     0.042452   
H34      H      0.037550000000     0.556510000000     0.245120000000     0.0421926  
H35      H      0.958480000000     0.546950000000     0.239690000000     0.0490121  
H36      H      0.012440000000     0.438950000000     0.294520000000     0.049927   
H37      H      0.944020000000     0.407530000000     0.247060000000     0.0512761  
H38      H      0.933740000000     0.431490000000     0.291350000000     0.0420738  
H39      H      0.025260000000     0.577760000000     0.289990000000     0.0498904  
H40      H      0.941440000000     0.517310000000     0.286550000000     0.0416774  
H41      H      0.027500000000     0.470600000000     0.047530000000     0.0415424  
H42      H      0.031420000000     0.554700000000     0.049980000000     0.041323   
H43      H      0.012780000000     0.572440000000     0.484670000000     0.0483653  
H44      H      0.969480000000     0.418000000000     0.049640000000     0.0483799  
H45      H      0.003300000000     0.434930000000     0.481730000000     0.0492099  
H46      H      0.948180000000     0.435400000000     0.484820000000     0.0412908  
H47      H      0.975680000000     0.554020000000     0.052150000000     0.0488056  
H48      H      0.953980000000     0.520890000000     0.485750000000     0.0412411  
H49      H      0.513180000000     0.746020000000     0.416370000000     0.0415008  
H50      H      0.504090000000     0.741340000000     0.340900000000     0.0413489  
H51      H      0.436650000000     0.665610000000     0.320240000000     0.0485846  
H52      H      0.474940000000     0.759680000000     0.444940000000     0.0490368  
H53      H      0.452060000000     0.672990000000     0.446250000000     0.0487378  
H54      H      0.405470000000     0.682960000000     0.428420000000     0.0406387  
H55      H      0.460030000000     0.752230000000     0.318400000000     0.0485248  
H56      H      0.395410000000     0.678250000000     0.345000000000     0.0403546  
H57      H      0.254420000000     0.532260000000     0.433650000000     0.0419788  
H58      H      0.251260000000     0.530530000000     0.345340000000     0.0419454  
H59      H      0.255600000000     0.460570000000     0.325800000000     0.0496502  
H60      H      0.198210000000     0.488000000000     0.453250000000     0.0487596  
H61      H      0.261520000000     0.463800000000     0.452450000000     0.0492895  
H62      H      0.206840000000     0.423500000000     0.427070000000     0.0406714  
H63      H      0.193500000000     0.485960000000     0.327680000000     0.0490518  
H64      H      0.203270000000     0.421950000000     0.353840000000     0.0409018  
H65      H      0.693460000000     0.416540000000     0.093350000000     0.04215    
H66      H      0.687010000000     0.402370000000     0.177430000000     0.0410991  
H67      H      0.760340000000     0.466350000000     0.206480000000     0.0485115  
H68      H      0.683500000000     0.463940000000     0.078140000000     0.0489335  
H69      H      0.770330000000     0.487100000000     0.080760000000     0.0490233  
H70      H      0.755620000000     0.523450000000     0.111080000000     0.0409964  
H71      H      0.673610000000     0.442630000000     0.203150000000     0.0485839  
H72      H      0.749420000000     0.510940000000     0.185340000000     0.0410325  
H73      H      0.550500000000     0.258550000000     0.091240000000     0.0414121  
H74      H      0.543490000000     0.254110000000     0.177380000000     0.041999   
H75      H      0.472200000000     0.257540000000     0.193680000000     0.0497393  
H76      H      0.508720000000     0.202900000000     0.068350000000     0.0489497  
H77      H      0.482750000000     0.264560000000     0.067240000000     0.0493573  
H78      H      0.441380000000     0.209320000000     0.090630000000     0.0411822  
H79      H      0.498650000000     0.196340000000     0.194100000000     0.0493364  
H80      H      0.435340000000     0.205180000000     0.164350000000     0.0412607  
H81      H      0.534020000000     0.495850000000     0.976950000000     0.0416489  
H82      H      0.453690000000     0.410900000000     0.476750000000     0.0421869  
H83      H      0.417460000000     0.392560000000     0.042100000000     0.0504481  
H84      H      0.527550000000     0.547790000000     0.478170000000     0.0492383  
H85      H      0.549450000000     0.526910000000     0.043900000000     0.0493353  
H86      H      0.495330000000     0.529470000000     0.044340000000     0.041619   
H87      H      0.398260000000     0.411010000000     0.475530000000     0.0504956  
H88      H      0.413130000000     0.445770000000     0.541800000000     0.0423491  
H89      H      0.449790000000     0.410210000000     0.292980000000     0.0422059  
H90      H      0.531790000000     0.494460000000     0.295160000000     0.0415123  
H91      H      0.549640000000     0.526050000000     0.228680000000     0.0488312  
H92      H      0.395380000000     0.412260000000     0.291730000000     0.0505093  
H93      H      0.416280000000     0.393140000000     0.226260000000     0.0504117  
H94      H      0.413100000000     0.446970000000     0.225840000000     0.0420906  
H95      H      0.526670000000     0.547170000000     0.293400000000     0.0488083  
H96      H      0.496190000000     0.529800000000     0.226210000000     0.0414256  
H97      H      0.470450000000     0.025360000000     0.775340000000     0.0425778  
H98      H      0.557690000000     0.034030000000     0.781440000000     0.0420711  
H99      H      0.547830000000     0.954890000000     0.787540000000     0.0488622  
H100     H      0.441930000000     0.008720000000     0.727670000000     0.049592   
H101     H      0.409110000000     0.941210000000     0.775560000000     0.0508898  
H102     H      0.433640000000     0.929830000000     0.732270000000     0.0420516  
H103     H      0.580270000000     0.021230000000     0.737670000000     0.0495367  
H104     H      0.519440000000     0.937450000000     0.739880000000     0.0418709  
H105     H      0.432940000000     0.950850000000     0.533910000000     0.0420484  
H106     H      0.510370000000     0.941760000000     0.540330000000     0.0416433  
H107     H      0.551630000000     0.961610000000     0.977290000000     0.049291   
H108     H      0.442010000000     0.010270000000     0.536690000000     0.0495743  
H109     H      0.428120000000     0.978390000000     0.967680000000     0.0489734  
H110     H      0.485180000000     0.031520000000     0.974260000000     0.0417703  
H111     H      0.566860000000     0.995740000000     0.546080000000     0.0490472  
H112     H      0.561280000000     0.021280000000     0.979550000000     0.0419241  
H113     H      0.260260000000     0.705960000000     0.846580000000     0.04206    
H114     H      0.272800000000     0.696520000000     0.931880000000     0.0409741  
H115     H      0.294660000000     0.773420000000     0.960650000000     0.0483192  
H116     H      0.204160000000     0.702360000000     0.836130000000     0.049559   
H117     H      0.273980000000     0.786330000000     0.836810000000     0.050407   
H118     H      0.227680000000     0.776140000000     0.871060000000     0.0411054  
H119     H      0.222770000000     0.689840000000     0.959390000000     0.0482213  
H120     H      0.240110000000     0.769500000000     0.943480000000     0.0406136  
H121     H      0.727120000000     0.287490000000     0.587300000000     0.04545    
H122     H      0.793090000000     0.277140000000     0.686290000000     0.0511493  
H123     H      0.707050000000     0.238810000000     0.681510000000     0.0468287  
H124     H      0.775270000000     0.285140000000     0.564140000000     0.0428731  
H125     H      0.696680000000     0.206150000000     0.564660000000     0.0488077  
H126     H      0.746420000000     0.203770000000     0.585670000000     0.0408271  
H127     H      0.795480000000     0.239730000000     0.648420000000     0.0413379  
H128     H      0.721980000000     0.192730000000     0.684450000000     0.0436629  
H129     H      0.028310000000     0.468820000000     0.747710000000     0.0424473  
H130     H      0.037550000000     0.556510000000     0.745120000000     0.042164   
H131     H      0.958480000000     0.546950000000     0.739700000000     0.0490212  
H132     H      0.012440000000     0.438950000000     0.794520000000     0.0499247  
H133     H      0.944020000000     0.407530000000     0.747060000000     0.0512876  
H134     H      0.933740000000     0.431490000000     0.791350000000     0.042083   
H135     H      0.025260000000     0.577760000000     0.789990000000     0.049861   
H136     H      0.941440000000     0.517310000000     0.786550000000     0.041689   
H137     H      0.027500000000     0.470600000000     0.547530000000     0.0415375  
H138     H      0.031420000000     0.554700000000     0.549980000000     0.0413164  
H139     H      0.012780000000     0.572440000000     0.984670000000     0.0483503  
H140     H      0.969480000000     0.418000000000     0.549640000000     0.048375   
H141     H      0.003300000000     0.434930000000     0.981730000000     0.0492069  
H142     H      0.948180000000     0.435390000000     0.984820000000     0.0412817  
H143     H      0.975680000000     0.554020000000     0.552150000000     0.0488013  
H144     H      0.953990000000     0.520890000000     0.985750000000     0.0412318  
H145     H      0.513180000000     0.746030000000     0.916370000000     0.0415066  
H146     H      0.504090000000     0.741340000000     0.840900000000     0.0413498  
H147     H      0.436650000000     0.665610000000     0.820240000000     0.0485844  
H148     H      0.474940000000     0.759680000000     0.944940000000     0.0490372  
H149     H      0.452060000000     0.672990000000     0.946250000000     0.0487348  
H150     H      0.405470000000     0.682960000000     0.928420000000     0.0406362  
H151     H      0.460030000000     0.752230000000     0.818400000000     0.0485237  
H152     H      0.395410000000     0.678250000000     0.845000000000     0.0403539  
H153     H      0.254420000000     0.532260000000     0.933660000000     0.0419704  
H154     H      0.251260000000     0.530530000000     0.845340000000     0.0419324  
H155     H      0.255600000000     0.460560000000     0.825790000000     0.0496647  
H156     H      0.198210000000     0.488000000000     0.953250000000     0.0487545  
H157     H      0.261520000000     0.463810000000     0.952450000000     0.0492904  
H158     H      0.206840000000     0.423500000000     0.927070000000     0.0406744  
H159     H      0.193500000000     0.485960000000     0.827670000000     0.04903    
H160     H      0.203270000000     0.421950000000     0.853840000000     0.0409213  
H161     H      0.693460000000     0.416540000000     0.593350000000     0.0421509  
H162     H      0.687010000000     0.402370000000     0.677430000000     0.0411056  
H163     H      0.760350000000     0.466350000000     0.706480000000     0.0485112  
H164     H      0.683500000000     0.463940000000     0.578140000000     0.0489404  
H165     H      0.770330000000     0.487100000000     0.580760000000     0.049026   
H166     H      0.755620000000     0.523450000000     0.611080000000     0.041002   
H167     H      0.673610000000     0.442630000000     0.703150000000     0.0485939  
H168     H      0.749420000000     0.510940000000     0.685350000000     0.0410239  
H169     H      0.550500000000     0.258550000000     0.591240000000     0.041411   
H170     H      0.543490000000     0.254110000000     0.677380000000     0.0419898  
H171     H      0.472200000000     0.257540000000     0.693680000000     0.0497475  
H172     H      0.508720000000     0.202900000000     0.568350000000     0.0489577  
H173     H      0.482750000000     0.264560000000     0.567240000000     0.0493472  
H174     H      0.441380000000     0.209320000000     0.590630000000     0.0411745  
H175     H      0.498650000000     0.196340000000     0.694100000000     0.0493362  
H176     H      0.435340000000     0.205180000000     0.664360000000     0.0412696  
H177     H      0.534020000000     0.495850000000     0.476950000000     0.0416502  
H178     H      0.453690000000     0.410900000000     0.976750000000     0.0421855  
H179     H      0.417460000000     0.392560000000     0.542100000000     0.0504481  
H180     H      0.527550000000     0.547790000000     0.978170000000     0.0492358  
H181     H      0.549450000000     0.526910000000     0.543900000000     0.0493366  
H182     H      0.495330000000     0.529470000000     0.544340000000     0.0416206  
H183     H      0.398260000000     0.411010000000     0.975530000000     0.0504921  
H184     H      0.413130000000     0.445770000000     0.041800000000     0.0423478  
H185     H      0.449790000000     0.410210000000     0.792980000000     0.0422084  
H186     H      0.531790000000     0.494460000000     0.795160000000     0.0415145  
H187     H      0.549640000000     0.526050000000     0.728680000000     0.0488314  
H188     H      0.395380000000     0.412260000000     0.791730000000     0.0505097  
H189     H      0.416280000000     0.393140000000     0.726260000000     0.0504083  
H190     H      0.413100000000     0.446970000000     0.725840000000     0.0420867  
H191     H      0.526670000000     0.547170000000     0.793400000000     0.0488087  
H192     H      0.496190000000     0.529800000000     0.726210000000     0.0414257  
In1      In     0.531990000000     0.409280000000     0.135600000000     2.41946    
In2      In     0.408010000000     0.524770000000     0.385280000000     2.41757    
In3      In     0.868830000000     0.434760000000     0.139570000000     2.39726    
In4      In     0.108100000000     0.549580000000     0.391990000000     2.41002    
In5      In     0.556100000000     0.103620000000     0.133280000000     2.40798    
In6      In     0.432760000000     0.864860000000     0.384030000000     2.39976    
In7      In     0.531990000000     0.409280000000     0.635600000000     2.41936    
In8      In     0.408010000000     0.524770000000     0.885280000000     2.41756    
In9      In     0.868840000000     0.434760000000     0.639570000000     2.39752    
In10     In     0.108100000000     0.549580000000     0.891990000000     2.41002    
In11     In     0.556100000000     0.103620000000     0.633280000000     2.408      
In12     In     0.432750000000     0.864860000000     0.884030000000     2.39992    
N1       N      0.476310000000     0.943250000000     0.283390000000    -0.165072   
N2       N      0.513560000000     0.020410000000     0.231280000000    -0.165287   
N3       N      0.489490000000     0.968830000000     0.468430000000    -0.166797   
N4       N      0.504480000000     0.003580000000     0.045750000000    -0.166301   
N5       N      0.289400000000     0.782190000000     0.398160000000    -0.165718   
N6       N      0.215190000000     0.687790000000     0.396110000000    -0.166173   
N7       N      0.697630000000     0.200880000000     0.128130000000    -0.166335   
N8       N      0.780160000000     0.291780000000     0.126700000000    -0.165287   
N9       N      0.946640000000     0.475230000000     0.241420000000    -0.164876   
N10      N      0.024280000000     0.510760000000     0.293650000000    -0.164836   
N11      N      0.008650000000     0.504100000000     0.478800000000    -0.166987   
N12      N      0.971580000000     0.485500000000     0.055070000000    -0.167633   
N13      N      0.436910000000     0.662420000000     0.383820000000    -0.166464   
N14      N      0.467000000000     0.759780000000     0.381720000000    -0.166681   
N15      N      0.264100000000     0.465380000000     0.388990000000    -0.165296   
N16      N      0.200040000000     0.498710000000     0.390420000000    -0.166298   
N17      N      0.768740000000     0.475460000000     0.143480000000    -0.166487   
N18      N      0.671450000000     0.444750000000     0.139600000000    -0.16632    
N19      N      0.479840000000     0.266270000000     0.130670000000    -0.165373   
N20      N      0.513640000000     0.202420000000     0.131820000000    -0.166368   
N21      N      0.483880000000     0.459380000000     0.047360000000    -0.165822   
N22      N      0.462500000000     0.479970000000     0.472600000000    -0.165852   
N23      N      0.483490000000     0.459250000000     0.223120000000    -0.166071   
N24      N      0.460680000000     0.480090000000     0.297020000000    -0.166077   
N25      N      0.476310000000     0.943250000000     0.783390000000    -0.165062   
N26      N      0.513560000000     0.020410000000     0.731280000000    -0.165292   
N27      N      0.489490000000     0.968830000000     0.968430000000    -0.166826   
N28      N      0.504480000000     0.003580000000     0.545750000000    -0.166402   
N29      N      0.289400000000     0.782190000000     0.898160000000    -0.165721   
N30      N      0.215190000000     0.687790000000     0.896110000000    -0.166169   
N31      N      0.697630000000     0.200880000000     0.628130000000    -0.166335   
N32      N      0.780160000000     0.291780000000     0.626700000000    -0.165326   
N33      N      0.946630000000     0.475230000000     0.741420000000    -0.164847   
N34      N      0.024280000000     0.510760000000     0.793650000000    -0.164854   
N35      N      0.008650000000     0.504100000000     0.978800000000    -0.166996   
N36      N      0.971580000000     0.485500000000     0.555070000000    -0.167656   
N37      N      0.436910000000     0.662420000000     0.883820000000    -0.166466   
N38      N      0.467000000000     0.759780000000     0.881720000000    -0.166682   
N39      N      0.264100000000     0.465380000000     0.888990000000    -0.165283   
N40      N      0.200040000000     0.498710000000     0.890420000000    -0.166304   
N41      N      0.768750000000     0.475460000000     0.643480000000    -0.16655    
N42      N      0.671450000000     0.444750000000     0.639600000000    -0.166259   
N43      N      0.479840000000     0.266270000000     0.630660000000    -0.16537    
N44      N      0.513640000000     0.202420000000     0.631820000000    -0.166377   
N45      N      0.483880000000     0.459380000000     0.547360000000    -0.165822   
N46      N      0.462500000000     0.479970000000     0.972600000000    -0.165884   
N47      N      0.483490000000     0.459250000000     0.723120000000    -0.166102   
N48      N      0.460680000000     0.480090000000     0.797020000000    -0.166076   
O1       O      0.541760000000     0.467080000000     0.091710000000    -0.498837   
O2       O      0.476540000000     0.400860000000     0.090030000000    -0.503594   
O3       O      0.476120000000     0.400850000000     0.180070000000    -0.502323   
O4       O      0.507990000000     0.339900000000     0.101800000000    -0.500019   
O5       O      0.604050000000     0.433740000000     0.106640000000    -0.502399   
O6       O      0.502210000000     0.336300000000     0.164370000000    -0.49794    
O7       O      0.541770000000     0.466610000000     0.180230000000    -0.502049   
O8       O      0.599680000000     0.424340000000     0.168830000000    -0.506229   
O9       O      0.402920000000     0.469800000000     0.429450000000    -0.503125   
O10      O      0.466770000000     0.537290000000     0.429690000000    -0.498637   
O11      O      0.466290000000     0.536870000000     0.341330000000    -0.501804   
O12      O      0.334890000000     0.493210000000     0.355770000000    -0.498054   
O13      O      0.421100000000     0.592250000000     0.353230000000    -0.505656   
O14      O      0.338010000000     0.495640000000     0.418550000000    -0.498833   
O15      O      0.401330000000     0.470490000000     0.339380000000    -0.501887   
O16      O      0.427740000000     0.595410000000     0.415740000000    -0.502742   
O17      O      0.905470000000     0.421500000000     0.191530000000    -0.489513   
O18      O      0.911840000000     0.489940000000     0.187590000000    -0.495958   
O19      O      0.918520000000     0.426880000000     0.096610000000    -0.510228   
O20      O      0.834540000000     0.358260000000     0.161660000000    -0.487377   
O21      O      0.815830000000     0.448970000000     0.172330000000    -0.504788   
O22      O      0.814470000000     0.369210000000     0.104430000000    -0.498054   
O23      O      0.921840000000     0.493860000000     0.098690000000    -0.501066   
O24      O      0.822960000000     0.461910000000     0.110620000000    -0.498396   
O25      O      0.062320000000     0.495780000000     0.344660000000    -0.498841   
O26      O      0.068210000000     0.564220000000     0.343140000000    -0.493937   
O27      O      0.056350000000     0.493380000000     0.434750000000    -0.506033   
O28      O      0.152600000000     0.522080000000     0.422660000000    -0.49806    
O29      O      0.163420000000     0.616010000000     0.425440000000    -0.501198   
O30      O      0.151820000000     0.522750000000     0.359970000000    -0.499739   
O31      O      0.060830000000     0.561050000000     0.435440000000    -0.505593   
O32      O      0.155490000000     0.622070000000     0.363780000000    -0.497936   
O33      O      0.561130000000     0.049980000000     0.092530000000    -0.502774   
O34      O      0.499430000000     0.056850000000     0.087790000000    -0.502704   
O35      O      0.568750000000     0.064080000000     0.183520000000    -0.496423   
O36      O      0.628350000000     0.153390000000     0.161880000000    -0.499493   
O37      O      0.535590000000     0.152840000000     0.101140000000    -0.499182   
O38      O      0.625260000000     0.148110000000     0.099280000000    -0.500123   
O39      O      0.500490000000     0.058150000000     0.179010000000    -0.500135   
O40      O      0.531270000000     0.150190000000     0.163670000000    -0.499199   
O41      O      0.491980000000     0.913020000000     0.427650000000    -0.499223   
O42      O      0.431120000000     0.921240000000     0.423410000000    -0.506506   
O43      O      0.489190000000     0.907890000000     0.337650000000    -0.498273   
O44      O      0.445500000000     0.810230000000     0.351830000000    -0.504546   
O45      O      0.366720000000     0.821350000000     0.421950000000    -0.500019   
O46      O      0.454870000000     0.815470000000     0.414030000000    -0.49853    
O47      O      0.421060000000     0.901920000000     0.331610000000    -0.492099   
O48      O      0.356310000000     0.826040000000     0.360500000000    -0.492721   
O49      O      0.541760000000     0.467080000000     0.591710000000    -0.498822   
O50      O      0.476540000000     0.400860000000     0.590030000000    -0.503586   
O51      O      0.476120000000     0.400850000000     0.680070000000    -0.502244   
O52      O      0.507990000000     0.339900000000     0.601800000000    -0.500016   
O53      O      0.604050000000     0.433750000000     0.606640000000    -0.502238   
O54      O      0.502210000000     0.336300000000     0.664370000000    -0.497938   
O55      O      0.541770000000     0.466610000000     0.680230000000    -0.502039   
O56      O      0.599680000000     0.424340000000     0.668840000000    -0.506074   
O57      O      0.402920000000     0.469800000000     0.929450000000    -0.503172   
O58      O      0.466770000000     0.537280000000     0.929690000000    -0.498723   
O59      O      0.466290000000     0.536870000000     0.841330000000    -0.501801   
O60      O      0.334890000000     0.493210000000     0.855770000000    -0.498051   
O61      O      0.421100000000     0.592250000000     0.853230000000    -0.505656   
O62      O      0.338010000000     0.495640000000     0.918550000000    -0.498833   
O63      O      0.401330000000     0.470490000000     0.839380000000    -0.501883   
O64      O      0.427740000000     0.595410000000     0.915740000000    -0.502752   
O65      O      0.905470000000     0.421500000000     0.691530000000    -0.489582   
O66      O      0.911830000000     0.489940000000     0.687590000000    -0.496005   
O67      O      0.918510000000     0.426880000000     0.596610000000    -0.510462   
O68      O      0.834540000000     0.358260000000     0.661660000000    -0.487455   
O69      O      0.815830000000     0.448970000000     0.672330000000    -0.504718   
O70      O      0.814470000000     0.369210000000     0.604440000000    -0.498209   
O71      O      0.921840000000     0.493860000000     0.598690000000    -0.501137   
O72      O      0.822960000000     0.461910000000     0.610620000000    -0.498329   
O73      O      0.062320000000     0.495780000000     0.844660000000    -0.498845   
O74      O      0.068210000000     0.564220000000     0.843140000000    -0.493943   
O75      O      0.056350000000     0.493380000000     0.934750000000    -0.506031   
O76      O      0.152600000000     0.522080000000     0.922660000000    -0.498134   
O77      O      0.163420000000     0.616010000000     0.925440000000    -0.501268   
O78      O      0.151820000000     0.522750000000     0.859970000000    -0.499667   
O79      O      0.060830000000     0.561050000000     0.935440000000    -0.505593   
O80      O      0.155490000000     0.622070000000     0.863780000000    -0.497864   
O81      O      0.561120000000     0.049980000000     0.592530000000    -0.503019   
O82      O      0.499440000000     0.056850000000     0.587790000000    -0.502952   
O83      O      0.568750000000     0.064080000000     0.683520000000    -0.49642    
O84      O      0.628350000000     0.153390000000     0.661880000000    -0.499512   
O85      O      0.535580000000     0.152840000000     0.601140000000    -0.499175   
O86      O      0.625260000000     0.148110000000     0.599280000000    -0.500131   
O87      O      0.500490000000     0.058150000000     0.679010000000    -0.500134   
O88      O      0.531260000000     0.150190000000     0.663670000000    -0.499186   
O89      O      0.491980000000     0.913020000000     0.927650000000    -0.499189   
O90      O      0.431120000000     0.921230000000     0.923410000000    -0.506715   
O91      O      0.489190000000     0.907890000000     0.837650000000    -0.498219   
O92      O      0.445500000000     0.810230000000     0.851830000000    -0.504495   
O93      O      0.366720000000     0.821350000000     0.921950000000    -0.500095   
O94      O      0.454870000000     0.815470000000     0.914030000000    -0.498463   
O95      O      0.421060000000     0.901920000000     0.831610000000    -0.492167   
O96      O      0.356310000000     0.826040000000     0.860500000000    -0.492832   


