data_structure

_audit_creation_method RASPA-1.0
_audit_creation_date 2023-5-22
_audit_author_name 'Poobodin Mano'

_cell_length_a    31.8613
_cell_length_b    28.5412
_cell_length_c    25.473
_cell_angle_alpha 89.9995
_cell_angle_beta  89.9982
_cell_angle_gamma 119.883
_cell_volume      20084.3

_symmetry_cell_setting          triclinic
_symmetry_space_group_name_Hall 'P 1'
_symmetry_space_group_name_H-M  'P 1'
_symmetry_Int_Tables_number     1

_symmetry_equiv_pos_as_xyz 'x,y,z'

loop_
_atom_site_label
_atom_site_type_symbol
_atom_site_fract_x
_atom_site_fract_y
_atom_site_fract_z
_atom_site_charge
C1       C      0.398940000000     0.665780000000     0.365160000000     0.412844   
C2       C      0.448100000000     0.622120000000     0.217590000000     0.391931   
C3       C      0.439420000000     0.529360000000     0.347020000000     0.403129   
C4       C      0.303450000000     0.515140000000     0.294790000000     0.397729   
C5       C      0.170970000000     0.683030000000     0.189600000000     0.407732   
C6       C      0.055060000000     0.598970000000     0.299530000000     0.397435   
C7       C      0.042270000000     0.509200000000     0.665530000000     0.401948   
C8       C      0.158450000000     0.533260000000     0.250720000000     0.400198   
C9       C      0.320620000000     0.855700000000     0.603170000000     0.40393    
C10      C      0.393520000000     0.985540000000     0.503480000000     0.402041   
C11      C      0.490460000000     0.956070000000     0.589730000000     0.401139   
C12      C      0.412630000000     0.832000000000     0.483890000000     0.407968   
C13      C      0.809900000000     0.376970000000     0.394850000000     0.405405   
C14      C      0.906080000000     0.417940000000     0.532730000000     0.409943   
C15      C      0.922370000000     0.545010000000     0.435050000000     0.399641   
C16      C      0.786420000000     0.456330000000     0.532360000000     0.412975   
C17      C      0.482870000000     0.369450000000     0.633350000000     0.404143   
C18      C      0.514430000000     0.447290000000     0.462560000000     0.404377   
C19      C      0.515770000000     0.533050000000     0.105250000000     0.402642   
C20      C      0.620460000000     0.456250000000     0.564740000000     0.403532   
C21      C      0.641670000000     0.241770000000     0.313550000000     0.404642   
C22      C      0.551290000000     0.107770000000     0.220040000000     0.403124   
C23      C      0.482960000000     0.126210000000     0.363830000000     0.405292   
C24      C      0.510070000000     0.238520000000     0.247630000000     0.402808   
C25      C      0.508810000000     0.323650000000     0.250300000000    -0.0102135  
C26      C      0.469920000000     0.255690000000     0.174180000000    -0.00986232 
C27      C      0.475120000000     0.345620000000     0.236440000000    -0.00912767 
C28      C      0.437260000000     0.279890000000     0.164530000000    -0.0095684  
C29      C      0.708900000000     0.409970000000     0.580420000000    -0.00981813 
C30      C      0.753690000000     0.510210000000     0.573990000000    -0.0110218  
C31      C      0.664400000000     0.406600000000     0.554570000000    -0.0101138  
C32      C      0.708800000000     0.509640000000     0.551170000000    -0.0113171  
C33      C      0.768930000000     0.354950000000     0.308620000000    -0.0107057  
C34      C      0.764440000000     0.282020000000     0.365030000000    -0.0105395  
C35      C      0.714200000000     0.331790000000     0.311770000000    -0.00980703 
C36      C      0.709460000000     0.256260000000     0.370440000000    -0.0104737  
C37      C      0.407790000000     0.044790000000     0.387540000000    -0.00954145 
C38      C      0.467160000000     0.109130000000     0.458040000000    -0.00970198 
C39      C      0.368800000000     0.022660000000     0.430010000000    -0.00875455 
C40      C      0.425030000000     0.083700000000     0.497070000000    -0.00964224 
C41      C      0.525970000000     0.012990000000     0.204760000000    -0.00955434 
C42      C      0.562180000000     0.080610000000     0.627830000000    -0.00965074 
C43      C      0.535040000000     0.976290000000     0.168510000000    -0.00889836 
C44      C      0.569390000000     0.039450000000     0.596270000000    -0.00905512 
C45      C      0.956630000000     0.443560000000     0.651880000000    -0.0103421  
C46      C      0.018660000000     0.474680000000     0.575990000000    -0.00980311 
C47      C      0.924150000000     0.393300000000     0.619290000000    -0.00851617 
C48      C      0.984090000000     0.421950000000     0.547890000000    -0.00890281 
C49      C      0.953120000000     0.610550000000     0.361780000000    -0.00998939 
C50      C      0.008850000000     0.614100000000     0.430550000000    -0.00955788 
C51      C      0.978240000000     0.594850000000     0.319700000000    -0.0104618  
C52      C      0.035390000000     0.596180000000     0.392710000000    -0.00990471 
C53      C      0.280230000000     0.824300000000     0.689420000000    -0.0112005  
C54      C      0.231120000000     0.806750000000     0.608620000000    -0.0105088  
C55      C      0.255430000000     0.763860000000     0.701840000000    -0.0101707  
C56      C      0.204570000000     0.745870000000     0.618630000000    -0.0103281  
C57      C      0.455250000000     0.561580000000     0.111350000000    -0.00901434 
C58      C      0.535830000000     0.609460000000     0.163780000000    -0.00952386 
C59      C      0.450210000000     0.611290000000     0.121910000000    -0.0106279  
C60      C      0.526130000000     0.656420000000     0.171840000000    -0.0104477  
C61      C      0.534860000000     0.494330000000     0.377650000000    -0.00974232 
C62      C      0.455220000000     0.413110000000     0.390020000000    -0.00856689 
C63      C      0.513320000000     0.531540000000     0.376680000000    -0.0087452  
C64      C      0.429110000000     0.445870000000     0.386460000000    -0.0111929  
C65      C      0.424670000000     0.802390000000     0.396500000000    -0.0112277  
C66      C      0.425720000000     0.753790000000     0.478210000000    -0.0110439  
C67      C      0.391700000000     0.748090000000     0.369660000000    -0.0108258  
C68      C      0.392250000000     0.699550000000     0.452150000000    -0.0100192  
C69      C      0.214260000000     0.503960000000     0.219890000000    -0.00962244 
C70      C      0.198410000000     0.509360000000     0.319040000000    -0.0101688  
C71      C      0.234100000000     0.466910000000     0.235000000000    -0.010037   
C72      C      0.220010000000     0.472820000000     0.329040000000    -0.01005    
C73      C      0.400380000000     0.664930000000     0.865620000000     0.412878   
C74      C      0.447030000000     0.616350000000     0.718790000000     0.391446   
C75      C      0.438990000000     0.527080000000     0.851090000000     0.402948   
C76      C      0.303060000000     0.513030000000     0.798170000000     0.397417   
C77      C      0.174070000000     0.684630000000     0.694220000000     0.407949   
C78      C      0.056570000000     0.599970000000     0.802890000000     0.397369   
C79      C      0.040060000000     0.506550000000     0.163070000000     0.401666   
C80      C      0.159220000000     0.533360000000     0.754460000000     0.399842   
C81      C      0.316770000000     0.854020000000     0.097640000000     0.404347   
C82      C      0.389040000000     0.982520000000     0.996600000000     0.401473   
C83      C      0.486140000000     0.957570000000     0.088160000000     0.400459   
C84      C      0.412710000000     0.832080000000     0.981510000000     0.407556   
C85      C      0.807160000000     0.378510000000     0.895100000000     0.405465   
C86      C      0.903610000000     0.415820000000     0.032070000000     0.410379   
C87      C      0.922160000000     0.545180000000     0.936860000000     0.400089   
C88      C      0.786130000000     0.457560000000     0.034520000000     0.412814   
C89      C      0.485930000000     0.377130000000     0.144540000000     0.403973   
C90      C      0.514450000000     0.447900000000     0.970240000000     0.403998   
C91      C      0.513580000000     0.527100000000     0.601730000000     0.40294    
C92      C      0.621520000000     0.459520000000     0.070610000000     0.404046   
C93      C      0.639590000000     0.241200000000     0.811540000000     0.405575   
C94      C      0.553810000000     0.105240000000     0.717630000000     0.402806   
C95      C      0.480230000000     0.122430000000     0.857290000000     0.405938   
C96      C      0.508250000000     0.232870000000     0.738890000000     0.402684   
C97      C      0.502870000000     0.315550000000     0.740510000000    -0.00993506 
C98      C      0.471170000000     0.249600000000     0.662110000000    -0.0100342  
C99      C      0.467810000000     0.334890000000     0.724250000000    -0.00924326 
C100     C      0.437000000000     0.271300000000     0.649810000000    -0.00945666 
C101     C      0.709320000000     0.411980000000     0.083940000000    -0.00987962 
C102     C      0.754700000000     0.512190000000     0.077230000000    -0.0109959  
C103     C      0.664580000000     0.409040000000     0.059170000000    -0.0100343  
C104     C      0.709680000000     0.512080000000     0.055470000000    -0.0112938  
C105     C      0.765030000000     0.357690000000     0.809540000000    -0.0107482  
C106     C      0.762480000000     0.284120000000     0.863490000000    -0.0106081  
C107     C      0.710110000000     0.332850000000     0.813030000000    -0.00993877 
C108     C      0.707410000000     0.256880000000     0.869070000000    -0.0105367  
C109     C      0.405180000000     0.040220000000     0.879670000000    -0.00950873 
C110     C      0.461840000000     0.105960000000     0.951120000000    -0.00964919 
C111     C      0.365020000000     0.017610000000     0.920850000000    -0.00878004 
C112     C      0.418610000000     0.080140000000     0.988690000000    -0.00963259 
C113     C      0.531910000000     0.011160000000     0.704570000000    -0.0093069  
C114     C      0.555280000000     0.082840000000     0.129050000000    -0.00967715 
C115     C      0.540870000000     0.974220000000     0.668650000000    -0.0081642  
C116     C      0.563540000000     0.042820000000     0.096890000000    -0.00921768 
C117     C      0.954530000000     0.440040000000     0.150570000000    -0.0102508  
C118     C      0.016030000000     0.470960000000     0.073990000000    -0.00973591 
C119     C      0.921650000000     0.389930000000     0.117970000000    -0.00851846 
C120     C      0.981040000000     0.418260000000     0.046130000000    -0.00874412 
C121     C      0.954350000000     0.611540000000     0.864320000000    -0.0100832  
C122     C      0.008960000000     0.613430000000     0.933640000000    -0.00949079 
C123     C      0.979750000000     0.596110000000     0.822330000000    -0.0104296  
C124     C      0.035670000000     0.595680000000     0.895840000000    -0.0099733  
C125     C      0.275400000000     0.823680000000     0.183510000000    -0.0111004  
C126     C      0.227190000000     0.803480000000     0.101680000000    -0.0104861  
C127     C      0.251460000000     0.763600000000     0.197160000000    -0.0101446  
C128     C      0.201310000000     0.742850000000     0.112990000000    -0.010383   
C129     C      0.452420000000     0.554380000000     0.611720000000    -0.00920493 
C130     C      0.533400000000     0.601410000000     0.663050000000    -0.00953848 
C131     C      0.447650000000     0.604150000000     0.623080000000    -0.010704   
C132     C      0.524330000000     0.648730000000     0.671880000000    -0.010612   
C133     C      0.533880000000     0.491830000000     0.883770000000    -0.00948457 
C134     C      0.454040000000     0.411700000000     0.898890000000    -0.00873843 
C135     C      0.512830000000     0.529460000000     0.881320000000    -0.00887113 
C136     C      0.428390000000     0.444870000000     0.893880000000    -0.0112721  
C137     C      0.426900000000     0.802500000000     0.895080000000    -0.011258   
C138     C      0.427120000000     0.754690000000     0.977610000000    -0.0112834  
C139     C      0.394280000000     0.748000000000     0.868390000000    -0.0108948  
C140     C      0.393970000000     0.700170000000     0.951860000000    -0.00995449 
C141     C      0.213720000000     0.502180000000     0.723710000000    -0.0096349  
C142     C      0.199010000000     0.509350000000     0.822860000000    -0.0101226  
C143     C      0.233070000000     0.464750000000     0.739190000000    -0.0101258  
C144     C      0.219970000000     0.472260000000     0.833190000000    -0.0101021  
H1       H      0.498680000000     0.271170000000     0.143620000000     0.0481583  
H2       H      0.545760000000     0.352630000000     0.235770000000     0.0456656  
H3       H      0.492390000000     0.389050000000     0.247390000000     0.0447556  
H4       H      0.448070000000     0.211090000000     0.169200000000     0.0470908  
H5       H      0.428590000000     0.267100000000     0.607120000000     0.0490845  
H6       H      0.404100000000     0.257500000000     0.188920000000     0.0381481  
H7       H      0.511120000000     0.322130000000     0.293790000000     0.0470547  
H8       H      0.441340000000     0.323140000000     0.259860000000     0.0362805  
H9       H      0.753230000000     0.514700000000     0.617320000000     0.039951   
H10      H      0.705460000000     0.412470000000     0.623660000000     0.0402278  
H11      H      0.631630000000     0.371690000000     0.571750000000     0.0486839  
H12      H      0.786930000000     0.545750000000     0.558470000000     0.0469604  
H13      H      0.706430000000     0.544310000000     0.567710000000     0.0486814  
H14      H      0.713840000000     0.515970000000     0.508040000000     0.0421678  
H15      H      0.710220000000     0.372520000000     0.571890000000     0.0490372  
H16      H      0.665100000000     0.398450000000     0.511970000000     0.0430464  
H17      H      0.772190000000     0.263690000000     0.330490000000     0.0384634  
H18      H      0.776800000000     0.336880000000     0.273950000000     0.0387148  
H19      H      0.701130000000     0.336990000000     0.272900000000     0.0474964  
H20      H      0.779440000000     0.272910000000     0.400500000000     0.0477731  
H21      H      0.693110000000     0.211540000000     0.370280000000     0.0469503  
H22      H      0.701310000000     0.267870000000     0.409170000000     0.0446945  
H23      H      0.787290000000     0.399420000000     0.302630000000     0.0484802  
H24      H      0.706720000000     0.355860000000     0.340740000000     0.0433554  
H25      H      0.492370000000     0.093770000000     0.466770000000     0.0484692  
H26      H      0.419010000000     0.014290000000     0.379570000000     0.0500554  
H27      H      0.341320000000     0.980050000000     0.421010000000     0.0478683  
H28      H      0.487650000000     0.153610000000     0.464380000000     0.0468468  
H29      H      0.439210000000     0.086210000000     0.537490000000     0.0491875  
H30      H      0.405770000000     0.107210000000     0.496100000000     0.0381725  
H31      H      0.391630000000     0.049630000000     0.350640000000     0.0471695  
H32      H      0.350300000000     0.047000000000     0.429960000000     0.0372649  
H33      H      0.530710000000     0.082370000000     0.611170000000     0.0511812  
H34      H      0.486230000000     0.996540000000     0.207890000000     0.0501385  
H35      H      0.510320000000     0.933230000000     0.178950000000     0.0482361  
H36      H      0.594400000000     0.121430000000     0.622470000000     0.0449225  
H37      H      0.565870000000     0.044970000000     0.553590000000     0.0482978  
H38      H      0.606680000000     0.046990000000     0.603570000000     0.0370231  
H39      H      0.539180000000     0.011340000000     0.244780000000     0.0473242  
H40      H      0.572890000000     0.985130000000     0.174460000000     0.0371563  
H41      H      0.016020000000     0.508290000000     0.557190000000     0.0498329  
H42      H      0.941500000000     0.471230000000     0.650350000000     0.0463321  
H43      H      0.885480000000     0.378550000000     0.628800000000     0.0463576  
H44      H      0.056410000000     0.483060000000     0.570270000000     0.0479664  
H45      H      0.989530000000     0.427470000000     0.504730000000     0.0487289  
H46      H      0.992680000000     0.390300000000     0.560330000000     0.0383152  
H47      H      0.955130000000     0.431260000000     0.693590000000     0.0467915  
H48      H      0.932430000000     0.361000000000     0.630110000000     0.0373036  
H49      H      0.026900000000     0.658980000000     0.429590000000     0.0383938  
H50      H      0.970860000000     0.655400000000     0.362840000000     0.0376365  
H51      H      0.982770000000     0.618970000000     0.283670000000     0.0465911  
H52      H      0.011460000000     0.601650000000     0.471240000000     0.0488746  
H53      H      0.074910000000     0.620030000000     0.400910000000     0.0470318  
H54      H      0.023780000000     0.553090000000     0.400750000000     0.0485404  
H55      H      0.914450000000     0.594330000000     0.351170000000     0.0487447  
H56      H      0.953920000000     0.551730000000     0.309110000000     0.04723    
H57      H      0.210030000000     0.823710000000     0.627320000000     0.0384934  
H58      H      0.259660000000     0.841330000000     0.709200000000     0.0392856  
H59      H      0.246120000000     0.758970000000     0.240410000000     0.0462528  
H60      H      0.232520000000     0.814530000000     0.565710000000     0.0475127  
H61      H      0.166060000000     0.728760000000     0.606770000000     0.0478185  
H62      H      0.220590000000     0.727370000000     0.592930000000     0.0435389  
H63      H      0.317590000000     0.844840000000     0.705630000000     0.0494917  
H64      H      0.279850000000     0.748450000000     0.689610000000     0.0432531  
H65      H      0.529770000000     0.587680000000     0.201720000000     0.0457064  
H66      H      0.428370000000     0.527620000000     0.135920000000     0.0456259  
H67      H      0.411320000000     0.599730000000     0.121900000000     0.049658   
H68      H      0.574640000000     0.626080000000     0.153500000000     0.0464906  
H69      H      0.543400000000     0.678080000000     0.208890000000     0.0489065  
H70      H      0.542900000000     0.685360000000     0.138760000000     0.0379573  
H71      H      0.445600000000     0.549260000000     0.069650000000     0.0463813  
H72      H      0.468480000000     0.640900000000     0.089650000000     0.0379844  
H73      H      0.457740000000     0.399420000000     0.349840000000     0.0349431  
H74      H      0.535240000000     0.480540000000     0.336880000000     0.0384524  
H75      H      0.532790000000     0.563380000000     0.346540000000     0.0474295  
H76      H      0.433900000000     0.376630000000     0.414730000000     0.0480605  
H77      H      0.396350000000     0.423430000000     0.361500000000     0.0468928  
H78      H      0.416320000000     0.448540000000     0.426380000000     0.0465905  
H79      H      0.572840000000     0.516790000000     0.392040000000     0.0477801  
H80      H      0.519880000000     0.552150000000     0.415350000000     0.0464555  
H81      H      0.463730000000     0.763270000000     0.472170000000     0.0399992  
H82      H      0.462790000000     0.815330000000     0.385940000000     0.0407036  
H83      H      0.400360000000     0.751920000000     0.327040000000     0.0473696  
H84      H      0.418620000000     0.750150000000     0.521170000000     0.0477555  
H85      H      0.400670000000     0.668800000000     0.467820000000     0.0476497  
H86      H      0.354340000000     0.686970000000     0.463310000000     0.0419027  
H87      H      0.416160000000     0.833140000000     0.381050000000     0.0489417  
H88      H      0.353580000000     0.738830000000     0.373900000000     0.0417896  
H89      H      0.224920000000     0.550970000000     0.332240000000     0.0450889  
H90      H      0.245130000000     0.544120000000     0.208810000000     0.0465207  
H91      H      0.260950000000     0.470020000000     0.205280000000     0.0499469  
H92      H      0.165530000000     0.495340000000     0.343820000000     0.0472995  
H93      H      0.236620000000     0.480860000000     0.368790000000     0.0486497  
H94      H      0.190190000000     0.430040000000     0.327900000000     0.0381847  
H95      H      0.191170000000     0.487220000000     0.184360000000     0.0465301  
H96      H      0.203610000000     0.424480000000     0.235240000000     0.0381006  
H97      H      0.501810000000     0.267520000000     0.633800000000     0.047939   
H98      H      0.540030000000     0.346470000000     0.728240000000     0.0457324  
H99      H      0.482400000000     0.377680000000     0.736380000000     0.0451575  
H100     H      0.451450000000     0.205120000000     0.655680000000     0.0468873  
H101     H      0.426100000000     0.274720000000     0.122610000000     0.0492154  
H102     H      0.402580000000     0.246540000000     0.671590000000     0.0381007  
H103     H      0.502970000000     0.313090000000     0.784090000000     0.0469215  
H104     H      0.432940000000     0.309900000000     0.745190000000     0.0368146  
H105     H      0.754990000000     0.516830000000     0.120600000000     0.0399701  
H106     H      0.706650000000     0.414640000000     0.127270000000     0.0403184  
H107     H      0.631960000000     0.374410000000     0.076900000000     0.0486907  
H108     H      0.787830000000     0.547490000000     0.061200000000     0.0469671  
H109     H      0.707930000000     0.547020000000     0.072330000000     0.0486573  
H110     H      0.714040000000     0.518260000000     0.012290000000     0.0422837  
H111     H      0.710130000000     0.374300000000     0.075050000000     0.0490815  
H112     H      0.664450000000     0.400670000000     0.016510000000     0.0430731  
H113     H      0.770750000000     0.267160000000     0.828230000000     0.0386054  
H114     H      0.773460000000     0.341240000000     0.774000000000     0.0388975  
H115     H      0.696640000000     0.338900000000     0.774780000000     0.0475974  
H116     H      0.777920000000     0.274690000000     0.898370000000     0.0478343  
H117     H      0.691980000000     0.212310000000     0.868100000000     0.0469688  
H118     H      0.698900000000     0.267420000000     0.908150000000     0.0443576  
H119     H      0.782370000000     0.402250000000     0.804840000000     0.0485219  
H120     H      0.701880000000     0.355180000000     0.843310000000     0.0430654  
H121     H      0.487330000000     0.091470000000     0.961680000000     0.0486335  
H122     H      0.417370000000     0.010310000000     0.873120000000     0.0500011  
H123     H      0.338450000000     0.974680000000     0.911860000000     0.0477962  
H124     H      0.481490000000     0.150500000000     0.957060000000     0.0466651  
H125     H      0.431660000000     0.083450000000     0.029760000000     0.0490705  
H126     H      0.398660000000     0.102810000000     0.985810000000     0.0381956  
H127     H      0.389800000000     0.044330000000     0.841860000000     0.0470853  
H128     H      0.345710000000     0.041060000000     0.919070000000     0.0371712  
H129     H      0.522390000000     0.082530000000     0.113900000000     0.0503204  
H130     H      0.492150000000     0.993880000000     0.708990000000     0.051393   
H131     H      0.516490000000     0.931130000000     0.679310000000     0.0475932  
H132     H      0.586800000000     0.123980000000     0.122730000000     0.045658   
H133     H      0.560120000000     0.048880000000     0.054310000000     0.048516   
H134     H      0.601020000000     0.050990000000     0.104280000000     0.0374957  
H135     H      0.546380000000     0.011010000000     0.744290000000     0.0465936  
H136     H      0.578600000000     0.982510000000     0.674230000000     0.0364429  
H137     H      0.013670000000     0.504720000000     0.055100000000     0.0502944  
H138     H      0.939320000000     0.467660000000     0.149880000000     0.0465086  
H139     H      0.883080000000     0.375380000000     0.127810000000     0.0463423  
H140     H      0.053640000000     0.478930000000     0.068150000000     0.0477563  
H141     H      0.986180000000     0.423630000000     0.002920000000     0.0486732  
H142     H      0.989460000000     0.386440000000     0.058430000000     0.0381434  
H143     H      0.953590000000     0.427530000000     0.192120000000     0.0465568  
H144     H      0.929780000000     0.357430000000     0.128410000000     0.0371647  
H145     H      0.027370000000     0.658350000000     0.933330000000     0.0383843  
H146     H      0.972380000000     0.656400000000     0.865970000000     0.037647   
H147     H      0.984850000000     0.620760000000     0.786560000000     0.0466223  
H148     H      0.010930000000     0.600250000000     0.974210000000     0.0489442  
H149     H      0.075090000000     0.619000000000     0.904700000000     0.0470396  
H150     H      0.023550000000     0.552360000000     0.903260000000     0.0484511  
H151     H      0.915870000000     0.595830000000     0.853190000000     0.0486748  
H152     H      0.955330000000     0.553180000000     0.811170000000     0.0470246  
H153     H      0.205350000000     0.820200000000     0.118980000000     0.038477   
H154     H      0.253950000000     0.840330000000     0.201960000000     0.0392504  
H155     H      0.250540000000     0.758430000000     0.745090000000     0.0462753  
H156     H      0.229040000000     0.810270000000     0.058560000000     0.0474662  
H157     H      0.162850000000     0.724830000000     0.100590000000     0.0478749  
H158     H      0.218010000000     0.724300000000     0.088400000000     0.043586   
H159     H      0.312530000000     0.845310000000     0.200310000000     0.0494443  
H160     H      0.276610000000     0.748780000000     0.186210000000     0.0434565  
H161     H      0.526740000000     0.578880000000     0.700600000000     0.0454241  
H162     H      0.426270000000     0.520580000000     0.636960000000     0.0452137  
H163     H      0.408770000000     0.592650000000     0.623880000000     0.0497139  
H164     H      0.572220000000     0.617740000000     0.653020000000     0.0467664  
H165     H      0.542180000000     0.670160000000     0.708830000000     0.0490084  
H166     H      0.540920000000     0.677710000000     0.638810000000     0.038225   
H167     H      0.441610000000     0.541850000000     0.570270000000     0.046641   
H168     H      0.465450000000     0.633770000000     0.590720000000     0.0382306  
H169     H      0.455780000000     0.396290000000     0.859290000000     0.0358505  
H170     H      0.533530000000     0.476440000000     0.843540000000     0.0383061  
H171     H      0.532170000000     0.560170000000     0.850190000000     0.04745    
H172     H      0.432810000000     0.376300000000     0.924920000000     0.0483943  
H173     H      0.395210000000     0.421760000000     0.869690000000     0.0468689  
H174     H      0.416340000000     0.449350000000     0.933600000000     0.0466472  
H175     H      0.572080000000     0.514470000000     0.897450000000     0.0477282  
H176     H      0.519970000000     0.551410000000     0.919280000000     0.0466486  
H177     H      0.465210000000     0.764270000000     0.972090000000     0.0398126  
H178     H      0.465150000000     0.815350000000     0.885320000000     0.0405192  
H179     H      0.403610000000     0.751490000000     0.825960000000     0.0472334  
H180     H      0.419700000000     0.751470000000     0.020500000000     0.047838   
H181     H      0.402420000000     0.669700000000     0.968220000000     0.0475396  
H182     H      0.355950000000     0.687530000000     0.962560000000     0.0419819  
H183     H      0.418630000000     0.833160000000     0.878820000000     0.0489089  
H184     H      0.356120000000     0.738820000000     0.871660000000     0.0418133  
H185     H      0.226020000000     0.550990000000     0.835490000000     0.045148   
H186     H      0.244780000000     0.541930000000     0.711940000000     0.0463544  
H187     H      0.259500000000     0.467030000000     0.709340000000     0.0498792  
H188     H      0.166410000000     0.496160000000     0.847910000000     0.0473579  
H189     H      0.236900000000     0.480590000000     0.872790000000     0.0486644  
H190     H      0.189770000000     0.429670000000     0.832630000000     0.0381638  
H191     H      0.190200000000     0.485150000000     0.688520000000     0.0464314  
H192     H      0.202260000000     0.422520000000     0.740030000000     0.0380633  
In1      In     0.398390000000     0.585320000000     0.308070000000     2.39204    
In2      In     0.107650000000     0.582890000000     0.226000000000     2.39939    
In3      In     0.402440000000     0.903930000000     0.544490000000     2.398      
In4      In     0.853950000000     0.448810000000     0.473750000000     2.38949    
In5      In     0.533480000000     0.451190000000     0.565920000000     2.41965    
In6      In     0.547530000000     0.179280000000     0.286620000000     2.41174    
In7      In     0.398310000000     0.582630000000     0.810240000000     2.38909    
In8      In     0.109640000000     0.584360000000     0.729550000000     2.39761    
In9      In     0.399420000000     0.902980000000     0.040350000000     2.39627    
In10     In     0.852480000000     0.449130000000     0.974570000000     2.38981    
In11     In     0.535040000000     0.455490000000     0.073370000000     2.42179    
In12     In     0.546560000000     0.176170000000     0.781790000000     2.41319    
N1       N      0.463500000000     0.336650000000     0.180470000000    -0.165953   
N2       N      0.493320000000     0.270080000000     0.226480000000    -0.165629   
N3       N      0.663880000000     0.457770000000     0.560740000000    -0.166092   
N4       N      0.751990000000     0.458990000000     0.562030000000    -0.168316   
N5       N      0.688570000000     0.274580000000     0.328770000000    -0.166863   
N6       N      0.785190000000     0.340140000000     0.356350000000    -0.167081   
N7       N      0.392110000000     0.028000000000     0.480760000000    -0.165296   
N8       N      0.451300000000     0.096290000000     0.402620000000    -0.165963   
N9       N      0.534000000000     0.985310000000     0.614360000000    -0.16503    
N10      N      0.548650000000     0.069570000000     0.185800000000    -0.165951   
N11      N      0.934720000000     0.406420000000     0.563630000000    -0.165961   
N12      N      0.007220000000     0.473250000000     0.632560000000    -0.165015   
N13      N      0.025380000000     0.601430000000     0.336850000000    -0.164462   
N14      N      0.958750000000     0.590810000000     0.412780000000    -0.164893   
N15      N      0.208830000000     0.732750000000     0.673830000000    -0.167932   
N16      N      0.279310000000     0.831460000000     0.632560000000    -0.166807   
N17      N      0.473790000000     0.634890000000     0.171860000000    -0.163597   
N18      N      0.504180000000     0.570220000000     0.123490000000    -0.166767   
N19      N      0.460520000000     0.501580000000     0.366560000000    -0.16703    
N20      N      0.503890000000     0.448000000000     0.410790000000    -0.166358   
N21      N      0.396630000000     0.704470000000     0.394560000000    -0.16804    
N22      N      0.419400000000     0.796630000000     0.453910000000    -0.167696   
N23      N      0.254960000000     0.482010000000     0.287520000000    -0.163934   
N24      N      0.186990000000     0.511670000000     0.263000000000    -0.166563   
N25      N      0.459840000000     0.327420000000     0.667570000000    -0.165826   
N26      N      0.491080000000     0.263290000000     0.716040000000    -0.165587   
N27      N      0.664660000000     0.460500000000     0.065710000000    -0.165989   
N28      N      0.752330000000     0.460700000000     0.064910000000    -0.16828    
N29      N      0.685860000000     0.275110000000     0.828070000000    -0.167055   
N30      N      0.782110000000     0.342290000000     0.856280000000    -0.167107   
N31      N      0.387040000000     0.024070000000     0.972570000000    -0.165154   
N32      N      0.447700000000     0.092350000000     0.895350000000    -0.166094   
N33      N      0.528660000000     0.988150000000     0.114260000000    -0.164973   
N34      N      0.553040000000     0.067230000000     0.684470000000    -0.165713   
N35      N      0.931900000000     0.403210000000     0.062300000000    -0.166022   
N36      N      0.004910000000     0.469970000000     0.130610000000    -0.165051   
N37      N      0.026530000000     0.602050000000     0.839970000000    -0.16452    
N38      N      0.959140000000     0.590920000000     0.915200000000    -0.165015   
N39      N      0.205310000000     0.731110000000     0.168730000000    -0.167803   
N40      N      0.275090000000     0.829560000000     0.126400000000    -0.166908   
N41      N      0.472070000000     0.627780000000     0.672690000000    -0.163585   
N42      N      0.501690000000     0.563260000000     0.622110000000    -0.166651   
N43      N      0.459930000000     0.499630000000     0.871900000000    -0.166912   
N44      N      0.503120000000     0.446900000000     0.918480000000    -0.165992   
N45      N      0.398710000000     0.704450000000     0.894250000000    -0.168142   
N46      N      0.420780000000     0.797120000000     0.952420000000    -0.167655   
N47      N      0.254430000000     0.480340000000     0.791450000000    -0.163918   
N48      N      0.187230000000     0.511130000000     0.766850000000    -0.16651    
O1       O      0.321370000000     0.535490000000     0.338890000000    -0.497428   
O2       O      0.333500000000     0.529760000000     0.257450000000    -0.480608   
O3       O      0.468340000000     0.634050000000     0.261990000000    -0.491132   
O4       O      0.396420000000     0.664410000000     0.315720000000    -0.51055    
O5       O      0.394910000000     0.507280000000     0.336730000000    -0.501825   
O6       O      0.402290000000     0.627520000000     0.385450000000    -0.509438   
O7       O      0.402500000000     0.593630000000     0.218820000000    -0.479837   
O8       O      0.462850000000     0.579480000000     0.338640000000    -0.495383   
O9       O      0.137320000000     0.546000000000     0.284980000000    -0.48938    
O10      O      0.153230000000     0.544660000000     0.204300000000    -0.505433   
O11      O      0.047540000000     0.599710000000     0.250880000000    -0.49741    
O12      O      0.176400000000     0.665520000000     0.232960000000    -0.513077   
O13      O      0.083560000000     0.544560000000     0.649460000000    -0.488012   
O14      O      0.135430000000     0.653580000000     0.670230000000    -0.502121   
O15      O      0.090170000000     0.592010000000     0.310960000000    -0.489149   
O16      O      0.033360000000     0.509070000000     0.211610000000    -0.499906   
O17      O      0.412130000000     0.872510000000     0.464990000000    -0.498818   
O18      O      0.407220000000     0.827300000000     0.532930000000    -0.513374   
O19      O      0.374890000000     0.939450000000     0.482260000000    -0.49106    
O20      O      0.320090000000     0.856650000000     0.553740000000    -0.507202   
O21      O      0.482240000000     0.968330000000     0.544770000000    -0.495578   
O22      O      0.362330000000     0.878600000000     0.623210000000    -0.493764   
O23      O      0.415880000000     0.990170000000     0.545790000000    -0.496163   
O24      O      0.454500000000     0.916810000000     0.611540000000    -0.488806   
O25      O      0.782360000000     0.412120000000     0.517870000000    -0.510115   
O26      O      0.824620000000     0.497530000000     0.517100000000    -0.504145   
O27      O      0.915620000000     0.431130000000     0.485030000000    -0.49272    
O28      O      0.822130000000     0.364530000000     0.437300000000    -0.501172   
O29      O      0.880970000000     0.518120000000     0.414430000000    -0.484744   
O30      O      0.820510000000     0.425690000000     0.391710000000    -0.495586   
O31      O      0.869780000000     0.419490000000     0.550500000000    -0.500761   
O32      O      0.928530000000     0.524450000000     0.476130000000    -0.494186   
O33      O      0.580710000000     0.412460000000     0.564490000000    -0.51367    
O34      O      0.616670000000     0.498250000000     0.566750000000    -0.490685   
O35      O      0.484950000000     0.412590000000     0.494420000000    -0.490926   
O36      O      0.479950000000     0.362970000000     0.584160000000    -0.491718   
O37      O      0.554500000000     0.533680000000     0.117590000000    -0.495578   
O38      O      0.515940000000     0.425110000000     0.157540000000    -0.510208   
O39      O      0.553340000000     0.483370000000     0.482810000000    -0.513348   
O40      O      0.485410000000     0.488930000000     0.571960000000    -0.512449   
O41      O      0.505070000000     0.196640000000     0.225080000000    -0.497579   
O42      O      0.533520000000     0.250180000000     0.290150000000    -0.50172    
O43      O      0.561900000000     0.154810000000     0.205810000000    -0.496338   
O44      O      0.615230000000     0.195170000000     0.332410000000    -0.501027   
O45      O      0.473920000000     0.114400000000     0.315910000000    -0.505108   
O46      O      0.620790000000     0.256450000000     0.280860000000    -0.505674   
O47      O      0.540280000000     0.097660000000     0.267870000000    -0.50317    
O48      O      0.524510000000     0.165880000000     0.373080000000    -0.497124   
O49      O      0.321460000000     0.534080000000     0.841900000000    -0.496958   
O50      O      0.332790000000     0.526570000000     0.760610000000    -0.480093   
O51      O      0.467860000000     0.628860000000     0.762860000000    -0.490367   
O52      O      0.397780000000     0.662740000000     0.816190000000    -0.509933   
O53      O      0.394390000000     0.505100000000     0.841330000000    -0.501232   
O54      O      0.403080000000     0.626600000000     0.886700000000    -0.509486   
O55      O      0.401390000000     0.588820000000     0.720790000000    -0.478918   
O56      O      0.462710000000     0.576850000000     0.841050000000    -0.495067   
O57      O      0.138910000000     0.547240000000     0.788690000000    -0.488944   
O58      O      0.153760000000     0.544300000000     0.707940000000    -0.504634   
O59      O      0.049760000000     0.601670000000     0.754200000000    -0.497157   
O60      O      0.179340000000     0.666100000000     0.737030000000    -0.51301    
O61      O      0.081050000000     0.542070000000     0.146450000000    -0.488476   
O62      O      0.132670000000     0.651010000000     0.165570000000    -0.501831   
O63      O      0.091270000000     0.592340000000     0.814510000000    -0.488574   
O64      O      0.035190000000     0.511260000000     0.714040000000    -0.499949   
O65      O      0.411980000000     0.872180000000     0.961880000000    -0.49884    
O66      O      0.406100000000     0.827310000000     0.030400000000    -0.512672   
O67      O      0.371740000000     0.936250000000     0.976030000000    -0.490635   
O68      O      0.316940000000     0.854070000000     0.048190000000    -0.506738   
O69      O      0.478360000000     0.969880000000     0.043010000000    -0.494267   
O70      O      0.358170000000     0.878080000000     0.118360000000    -0.494388   
O71      O      0.410770000000     0.988330000000     0.039610000000    -0.495353   
O72      O      0.450490000000     0.916960000000     0.108750000000    -0.488789   
O73      O      0.781520000000     0.413140000000     0.019860000000    -0.509784   
O74      O      0.824270000000     0.498510000000     0.018720000000    -0.504179   
O75      O      0.913200000000     0.429740000000     0.984530000000    -0.493112   
O76      O      0.820430000000     0.365560000000     0.936540000000    -0.501388   
O77      O      0.881010000000     0.518880000000     0.915580000000    -0.485505   
O78      O      0.817280000000     0.427130000000     0.893260000000    -0.495794   
O79      O      0.867720000000     0.417870000000     0.050400000000    -0.500385   
O80      O      0.927460000000     0.524110000000     0.978060000000    -0.494443   
O81      O      0.581560000000     0.415950000000     0.070930000000    -0.514495   
O82      O      0.618210000000     0.501810000000     0.072880000000    -0.491425   
O83      O      0.485420000000     0.414320000000     0.003210000000    -0.4896     
O84      O      0.480170000000     0.368860000000     0.095660000000    -0.492924   
O85      O      0.552430000000     0.527560000000     0.613120000000    -0.495322   
O86      O      0.510810000000     0.417300000000     0.648510000000    -0.509714   
O87      O      0.553700000000     0.484620000000     0.989280000000    -0.513148   
O88      O      0.487420000000     0.493870000000     0.076640000000    -0.513431   
O89      O      0.506370000000     0.192360000000     0.716570000000    -0.496851   
O90      O      0.529010000000     0.244390000000     0.783040000000    -0.502435   
O91      O      0.564090000000     0.151930000000     0.702540000000    -0.496164   
O92      O      0.614130000000     0.193740000000     0.828850000000    -0.501941   
O93      O      0.472640000000     0.110310000000     0.809280000000    -0.505391   
O94      O      0.618320000000     0.255500000000     0.779010000000    -0.506295   
O95      O      0.541330000000     0.095200000000     0.765120000000    -0.503187   
O96      O      0.521210000000     0.162650000000     0.867450000000    -0.498326   


