data_structure

_audit_creation_method RASPA-1.0
_audit_creation_date 2023-5-22
_audit_author_name 'Poobodin Mano'

_cell_length_a    33.5741
_cell_length_b    26.2151
_cell_length_c    28.4059
_cell_angle_alpha 90.0012
_cell_angle_beta  89.9994
_cell_angle_gamma 90.0001
_cell_volume      25001.4

_symmetry_cell_setting          triclinic
_symmetry_space_group_name_Hall 'P 1'
_symmetry_space_group_name_H-M  'P 1'
_symmetry_Int_Tables_number     1

_symmetry_equiv_pos_as_xyz 'x,y,z'

loop_
_atom_site_label
_atom_site_type_symbol
_atom_site_fract_x
_atom_site_fract_y
_atom_site_fract_z
_atom_site_charge
C1       C      0.354020000000     0.032030000000     0.253590000000     0.400899   
C2       C      0.454200000000     0.062750000000     0.157370000000     0.406581   
C3       C      0.386460000000     0.187580000000     0.243640000000     0.406369   
C4       C      0.480500000000     0.092340000000     0.296850000000     0.402516   
C5       C      0.108870000000     0.039460000000     0.383520000000     0.407529   
C6       C      0.204520000000     0.997110000000     0.466380000000     0.400854   
C7       C      0.121210000000     0.879530000000     0.388380000000     0.404956   
C8       C      0.222820000000     0.953780000000     0.323230000000     0.404499   
C9       C      0.341590000000     0.025840000000     0.753070000000     0.402538   
C10      C      0.279200000000     0.059880000000     0.624090000000     0.411468   
C11      C      0.223120000000     0.090520000000     0.760560000000     0.401491   
C12      C      0.325860000000     0.188310000000     0.712410000000     0.411844   
C13      C      0.091470000000     0.049200000000     0.857500000000     0.400039   
C14      C      0.018860000000     0.007100000000     0.986570000000     0.410594   
C15      C      0.972330000000     0.988530000000     0.849920000000     0.404221   
C16      C      0.075310000000     0.888340000000     0.897800000000     0.410879   
C17      C      0.364670000000     0.531260000000     0.783220000000     0.400917   
C18      C      0.427030000000     0.499960000000     0.646810000000     0.404318   
C19      C      0.489870000000     0.491600000000     0.780950000000     0.404163   
C20      C      0.389740000000     0.376720000000     0.740610000000     0.410817   
C21      C      0.124210000000     0.548200000000     0.870780000000     0.400981   
C22      C      0.189100000000     0.569500000000     0.005610000000     0.407421   
C23      C      0.244530000000     0.616090000000     0.875820000000     0.405622   
C24      C      0.138600000000     0.702820000000     0.930010000000     0.414088   
C25      C      0.074330000000     0.532860000000     0.376370000000     0.402755   
C26      C      0.983890000000     0.565890000000     0.477170000000     0.404775   
C27      C      0.052920000000     0.690090000000     0.390200000000     0.408493   
C28      C      0.451760000000     0.602270000000     0.337900000000     0.40142    
C29      C      0.322040000000     0.511670000000     0.273310000000     0.40343    
C30      C      0.224000000000     0.487040000000     0.176670000000     0.405074   
C31      C      0.293460000000     0.355160000000     0.252690000000     0.404859   
C32      C      0.198990000000     0.437780000000     0.315410000000     0.407204   
C33      C      0.101460000000     0.466040000000     0.324980000000    -0.0102454  
C34      C      0.144140000000     0.508880000000     0.388950000000    -0.00988936 
C35      C      0.127960000000     0.418830000000     0.329740000000    -0.0100367  
C36      C      0.168460000000     0.459720000000     0.391740000000    -0.00981293 
C37      C      0.351850000000     0.573490000000     0.327930000000    -0.010417   
C38      C      0.393310000000     0.530230000000     0.263640000000    -0.0104881  
C39      C      0.380010000000     0.619300000000     0.325080000000    -0.011011   
C40      C      0.419940000000     0.577570000000     0.262650000000    -0.0105645  
C41      C      0.211930000000     0.495820000000     0.052280000000    -0.00964629 
C42      C      0.205650000000     0.583250000000     0.089360000000    -0.0106065  
C43      C      0.195700000000     0.472090000000     0.097480000000    -0.0110906  
C44      C      0.190730000000     0.558290000000     0.134830000000    -0.0111893  
C45      C      0.974520000000     0.495600000000     0.533840000000    -0.00999185 
C46      C      0.460140000000     0.585850000000     0.558060000000    -0.0106239  
C47      C      0.938820000000     0.477440000000     0.562890000000    -0.010876   
C48      C      0.423830000000     0.566630000000     0.585220000000    -0.0099295  
C49      C      0.283710000000     0.625570000000     0.802490000000    -0.010575   
C50      C      0.317840000000     0.607350000000     0.878140000000    -0.00990064 
C51      C      0.300710000000     0.576950000000     0.780420000000    -0.0105183  
C52      C      0.335470000000     0.558020000000     0.858560000000    -0.0108279  
C53      C      0.096820000000     0.520480000000     0.793950000000    -0.0113207  
C54      C      0.070800000000     0.482830000000     0.868340000000    -0.0106954  
C55      C      0.054790000000     0.536120000000     0.778990000000    -0.0104685  
C56      C      0.028050000000     0.496510000000     0.854340000000    -0.0108171  
C57      C      0.077790000000     0.756200000000     0.930380000000    -0.0108335  
C58      C      0.145100000000     0.796050000000     0.941390000000    -0.00995789 
C59      C      0.068350000000     0.794630000000     0.891390000000    -0.0104044  
C60      C      0.135850000000     0.834810000000     0.902690000000    -0.0109241  
C61      C      0.385950000000     0.243110000000     0.708670000000    -0.0112464  
C62      C      0.317370000000     0.281860000000     0.709630000000    -0.0102665  
C63      C      0.400020000000     0.283110000000     0.744420000000    -0.0106145  
C64      C      0.331040000000     0.320270000000     0.746640000000    -0.0106969  
C65      C      0.400500000000     0.004760000000     0.847830000000    -0.00582465 
C66      C      0.438740000000     0.990010000000     0.770990000000    -0.0119112  
C67      C      0.364010000000     0.981060000000     0.824620000000    -0.012217   
C68      C      0.400330000000     0.968920000000     0.749460000000    -0.0094433  
C69      C      0.114800000000     0.093250000000     0.785560000000    -0.0111175  
C70      C      0.152080000000     0.103100000000     0.860460000000    -0.0104234  
C71      C      0.151440000000     0.071340000000     0.760840000000    -0.0100008  
C72      C      0.190160000000     0.082630000000     0.837570000000    -0.0106882  
C73      C      0.086880000000     0.812520000000     0.434020000000    -0.010688   
C74      C      0.078460000000     0.817330000000     0.346280000000    -0.0111655  
C75      C      0.093470000000     0.755080000000     0.430730000000    -0.0103649  
C76      C      0.083340000000     0.759240000000     0.342900000000    -0.0112526  
C77      C      0.229810000000     0.068170000000     0.514780000000    -0.0108452  
C78      C      0.229150000000     0.977540000000     0.546090000000    -0.0117122  
C79      C      0.269920000000     0.076770000000     0.539030000000    -0.00987584 
C80      C      0.269350000000     0.987430000000     0.569520000000    -0.00978202 
C81      C      0.321070000000     0.280280000000     0.294770000000    -0.0110125  
C82      C      0.316820000000     0.281290000000     0.206340000000    -0.0104294  
C83      C      0.364180000000     0.261280000000     0.291560000000    -0.0109255  
C84      C      0.360100000000     0.263890000000     0.203250000000    -0.0100696  
C85      C      0.000360000000     0.085200000000     0.092360000000    -0.0128302  
C86      C      0.988810000000     0.993160000000     0.111740000000    -0.0112496  
C87      C      0.489370000000     0.074420000000     0.036860000000    -0.00943    
C88      C      0.482170000000     0.981200000000     0.058140000000    -0.0107351  
C89      C      0.323010000000     0.968630000000     0.305430000000    -0.0110666  
C90      C      0.281830000000     0.019930000000     0.245710000000    -0.00942865 
C91      C      0.291330000000     0.926800000000     0.302800000000    -0.0104963  
C92      C      0.251480000000     0.976320000000     0.245600000000    -0.0115644  
C93      C      0.010070000000     0.057530000000     0.369250000000    -0.0108102  
C94      C      0.051730000000     0.105640000000     0.307110000000    -0.0100763  
C95      C      0.042120000000     0.071260000000     0.405280000000    -0.00957043 
C96      C      0.082010000000     0.117070000000     0.345810000000    -0.00950248 
C97      C      0.854860000000     0.030180000000     0.253880000000     0.399583   
C98      C      0.956370000000     0.061300000000     0.158290000000     0.407562   
C99      C      0.885600000000     0.185720000000     0.242370000000     0.406775   
C100     C      0.980140000000     0.092160000000     0.297460000000     0.402141   
C101     C      0.609570000000     0.039390000000     0.383320000000     0.40763    
C102     C      0.704510000000     0.997540000000     0.467920000000     0.400541   
C103     C      0.621860000000     0.879380000000     0.389800000000     0.404858   
C104     C      0.723840000000     0.952870000000     0.325050000000     0.404521   
C105     C      0.840610000000     0.029390000000     0.756690000000     0.401653   
C106     C      0.778240000000     0.061210000000     0.626250000000     0.410627   
C107     C      0.721840000000     0.092580000000     0.762020000000     0.400763   
C108     C      0.824780000000     0.190560000000     0.713010000000     0.412438   
C109     C      0.590210000000     0.049630000000     0.858090000000     0.399661   
C110     C      0.516080000000     0.007520000000     0.985160000000     0.411926   
C111     C      0.471940000000     0.985450000000     0.848070000000     0.402697   
C112     C      0.574910000000     0.888060000000     0.897630000000     0.411237   
C113     C      0.864460000000     0.533430000000     0.782300000000     0.401346   
C114     C      0.926420000000     0.501330000000     0.646060000000     0.404207   
C115     C      0.989540000000     0.493160000000     0.780490000000     0.404981   
C116     C      0.889400000000     0.378530000000     0.740530000000     0.410285   
C117     C      0.624490000000     0.547570000000     0.870720000000     0.401171   
C118     C      0.689700000000     0.569120000000     0.004660000000     0.407754   
C119     C      0.744290000000     0.617690000000     0.874730000000     0.405313   
C120     C      0.638260000000     0.702610000000     0.929690000000     0.414169   
C121     C      0.574800000000     0.532430000000     0.376740000000     0.402732   
C122     C      0.485510000000     0.565330000000     0.478830000000     0.404915   
C123     C      0.553860000000     0.689830000000     0.391660000000     0.408638   
C124     C      0.951430000000     0.601850000000     0.335720000000     0.401317   
C125     C      0.821970000000     0.510350000000     0.271650000000     0.404093   
C126     C      0.724370000000     0.485460000000     0.175270000000     0.404556   
C127     C      0.792540000000     0.353290000000     0.252130000000     0.404301   
C128     C      0.698800000000     0.436630000000     0.314400000000     0.407891   
C129     C      0.601400000000     0.465970000000     0.324550000000    -0.0103471  
C130     C      0.644560000000     0.507780000000     0.388620000000    -0.00990824 
C131     C      0.627630000000     0.418450000000     0.328770000000    -0.00996141 
C132     C      0.668560000000     0.458330000000     0.390950000000    -0.00969666 
C133     C      0.851570000000     0.573260000000     0.325360000000    -0.0103745  
C134     C      0.893340000000     0.528490000000     0.262240000000    -0.0104619  
C135     C      0.879820000000     0.618930000000     0.321880000000    -0.0110555  
C136     C      0.920070000000     0.575730000000     0.260600000000    -0.0106458  
C137     C      0.714110000000     0.495820000000     0.050730000000    -0.00951402 
C138     C      0.705020000000     0.582290000000     0.088830000000    -0.010577   
C139     C      0.697820000000     0.470660000000     0.095220000000    -0.0112266  
C140     C      0.690050000000     0.556000000000     0.133620000000    -0.0111713  
C141     C      0.476350000000     0.494750000000     0.535370000000    -0.0108736  
C142     C      0.958220000000     0.586780000000     0.556090000000    -0.0103179  
C143     C      0.440170000000     0.476630000000     0.563630000000    -0.0104516  
C144     C      0.922400000000     0.567560000000     0.584150000000    -0.0100689  
C145     C      0.782940000000     0.627160000000     0.801020000000    -0.0106165  
C146     C      0.817720000000     0.610700000000     0.876570000000    -0.00989293 
C147     C      0.800250000000     0.578470000000     0.779430000000    -0.0103885  
C148     C      0.835730000000     0.561350000000     0.857520000000    -0.0107467  
C149     C      0.597170000000     0.518970000000     0.794130000000    -0.0113003  
C150     C      0.571190000000     0.482030000000     0.868830000000    -0.0105651  
C151     C      0.555140000000     0.534460000000     0.779060000000    -0.0104355  
C152     C      0.528420000000     0.495530000000     0.854740000000    -0.0108987  
C153     C      0.577300000000     0.755650000000     0.929110000000    -0.0108076  
C154     C      0.644230000000     0.795710000000     0.942400000000    -0.00991937 
C155     C      0.568550000000     0.794400000000     0.890180000000    -0.0103912  
C156     C      0.635610000000     0.834960000000     0.903890000000    -0.0110049  
C157     C      0.884770000000     0.245370000000     0.707490000000    -0.0111154  
C158     C      0.816270000000     0.284150000000     0.710980000000    -0.010268   
C159     C      0.899660000000     0.284880000000     0.743250000000    -0.0107017  
C160     C      0.830780000000     0.322120000000     0.747930000000    -0.010783   
C161     C      0.901680000000     0.012270000000     0.850500000000    -0.00687532 
C162     C      0.937750000000     0.991340000000     0.773540000000    -0.0118522  
C163     C      0.864130000000     0.988610000000     0.829770000000    -0.0133256  
C164     C      0.898360000000     0.970680000000     0.754160000000    -0.0097603  
C165     C      0.613430000000     0.095000000000     0.786800000000    -0.0111829  
C166     C      0.650580000000     0.103890000000     0.861870000000    -0.0104349  
C167     C      0.650130000000     0.073570000000     0.761860000000    -0.00998074 
C168     C      0.688720000000     0.083850000000     0.838830000000    -0.0107527  
C169     C      0.587670000000     0.812300000000     0.435500000000    -0.0107125  
C170     C      0.579200000000     0.817050000000     0.347760000000    -0.0112207  
C171     C      0.594360000000     0.754870000000     0.432210000000    -0.0104064  
C172     C      0.584250000000     0.759000000000     0.344380000000    -0.0111951  
C173     C      0.729670000000     0.068840000000     0.516130000000    -0.0108413  
C174     C      0.728090000000     0.978580000000     0.548200000000    -0.0116874  
C175     C      0.769540000000     0.077310000000     0.540960000000    -0.00993166 
C176     C      0.768060000000     0.988300000000     0.572260000000    -0.00989058 
C177     C      0.821210000000     0.279240000000     0.294450000000    -0.01092    
C178     C      0.813890000000     0.277950000000     0.206360000000    -0.0106175  
C179     C      0.864210000000     0.260320000000     0.289610000000    -0.0109169  
C180     C      0.857020000000     0.260410000000     0.201490000000    -0.00998026 
C181     C      0.494930000000     0.087110000000     0.088830000000    -0.0103591  
C182     C      0.486440000000     0.995050000000     0.110270000000    -0.0117096  
C183     C      0.995180000000     0.074010000000     0.040040000000    -0.00694624 
C184     C      0.984790000000     0.980770000000     0.059260000000    -0.0102272  
C185     C      0.824070000000     0.967900000000     0.307000000000    -0.0110871  
C186     C      0.782780000000     0.017180000000     0.245920000000    -0.00951649 
C187     C      0.792510000000     0.925850000000     0.305410000000    -0.0105229  
C188     C      0.752540000000     0.973460000000     0.246970000000    -0.0114957  
C189     C      0.510620000000     0.057720000000     0.368570000000    -0.0100096  
C190     C      0.552390000000     0.104210000000     0.305620000000    -0.0101051  
C191     C      0.542800000000     0.071770000000     0.404340000000    -0.00985005 
C192     C      0.582830000000     0.116160000000     0.344020000000    -0.0096122  
H1       H      0.161210000000     0.537420000000     0.368170000000     0.0443427  
H2       H      0.110510000000     0.487200000000     0.292770000000     0.0434021  
H3       H      0.128970000000     0.397950000000     0.295690000000     0.0474402  
H4       H      0.140590000000     0.524440000000     0.425150000000     0.0479601  
H5       H      0.199280000000     0.468470000000     0.403570000000     0.0495198  
H6       H      0.154490000000     0.434290000000     0.418400000000     0.0394745  
H7       H      0.070150000000     0.453360000000     0.319740000000     0.0492115  
H8       H      0.114500000000     0.393140000000     0.356540000000     0.0392206  
H9       H      0.408560000000     0.500060000000     0.284430000000     0.0431557  
H10      H      0.360200000000     0.550230000000     0.359140000000     0.0426056  
H11      H      0.381270000000     0.638720000000     0.359850000000     0.0477599  
H12      H      0.389930000000     0.515720000000     0.227060000000     0.0468815  
H13      H      0.450510000000     0.566620000000     0.251480000000     0.0498718  
H14      H      0.407780000000     0.604470000000     0.235990000000     0.0394253  
H15      H      0.321050000000     0.587760000000     0.333840000000     0.0489614  
H16      H      0.367650000000     0.646750000000     0.299030000000     0.0394066  
H17      H      0.238090000000     0.590710000000     0.093190000000     0.0418595  
H18      H      0.245010000000     0.494110000000     0.053340000000     0.0434607  
H19      H      0.208170000000     0.433050000000     0.101490000000     0.0510619  
H20      H      0.190560000000     0.620710000000     0.085020000000     0.0482269  
H21      H      0.200370000000     0.581630000000     0.165460000000     0.0470707  
H22      H      0.157620000000     0.558220000000     0.134080000000     0.0406808  
H23      H      0.201730000000     0.472560000000     0.021840000000     0.049273   
H24      H      0.162820000000     0.468590000000     0.094020000000     0.0419537  
H25      H      0.485150000000     0.590850000000     0.583300000000     0.0440447  
H26      H      0.001790000000     0.491900000000     0.555800000000     0.0416941  
H27      H      0.945300000000     0.438950000000     0.577420000000     0.0479185  
H28      H      0.453060000000     0.623900000000     0.542920000000     0.0500585  
H29      H      0.417650000000     0.592950000000     0.615020000000     0.0502682  
H30      H      0.397690000000     0.567520000000     0.561190000000     0.0413328  
H31      H      0.978040000000     0.470000000000     0.502910000000     0.047349   
H32      H      0.414160000000     0.472770000000     0.539650000000     0.0398209  
H33      H      0.339410000000     0.638750000000     0.871490000000     0.0390249  
H34      H      0.304650000000     0.657460000000     0.795100000000     0.0397018  
H35      H      0.307910000000     0.584800000000     0.742880000000     0.0494875  
H36      H      0.313860000000     0.603810000000     0.916860000000     0.0478314  
H37      H      0.365860000000     0.552950000000     0.873430000000     0.0485628  
H38      H      0.316960000000     0.525500000000     0.870920000000     0.0437345  
H39      H      0.254640000000     0.634830000000     0.785810000000     0.0493039  
H40      H      0.277260000000     0.547010000000     0.781080000000     0.0441738  
H41      H      0.076970000000     0.443360000000     0.855980000000     0.0398268  
H42      H      0.103090000000     0.482020000000     0.779160000000     0.0397898  
H43      H      0.552850000000     0.530900000000     0.740130000000     0.0469973  
H44      H      0.073480000000     0.483150000000     0.907350000000     0.0487043  
H45      H      0.007790000000     0.465820000000     0.866870000000     0.0489721  
H46      H      0.019550000000     0.532220000000     0.872930000000     0.0434808  
H47      H      0.118750000000     0.547640000000     0.778740000000     0.049252   
H48      H      0.050230000000     0.576860000000     0.788490000000     0.0423133  
H49      H      0.136890000000     0.813320000000     0.975810000000     0.0413122  
H50      H      0.066220000000     0.771620000000     0.964190000000     0.0417313  
H51      H      0.035820000000     0.802550000000     0.891390000000     0.0479318  
H52      H      0.177650000000     0.788290000000     0.941910000000     0.0480139  
H53      H      0.151330000000     0.871270000000     0.910750000000     0.0474982  
H54      H      0.148050000000     0.819980000000     0.868960000000     0.0402577  
H55      H      0.062010000000     0.719800000000     0.922960000000     0.0470506  
H56      H      0.076110000000     0.777000000000     0.856980000000     0.0400394  
H57      H      0.320550000000     0.299710000000     0.674320000000     0.0420855  
H58      H      0.393490000000     0.257090000000     0.672800000000     0.0417756  
H59      H      0.431790000000     0.292410000000     0.737490000000     0.0475172  
H60      H      0.285280000000     0.273350000000     0.715260000000     0.0476911  
H61      H      0.313590000000     0.356030000000     0.742510000000     0.0481733  
H62      H      0.324330000000     0.304310000000     0.782040000000     0.0402006  
H63      H      0.402620000000     0.207030000000     0.714600000000     0.0474488  
H64      H      0.398070000000     0.266050000000     0.780190000000     0.0400144  
H65      H      0.442650000000     0.030000000000     0.758810000000     0.0461167  
H66      H      0.397560000000     0.047000000000     0.846560000000     0.0436654  
H67      H      0.336490000000     0.996490000000     0.841110000000     0.0494301  
H68      H      0.464370000000     0.967580000000     0.757320000000     0.049946   
H69      H      0.399880000000     0.976740000000     0.710990000000     0.048606   
H70      H      0.400120000000     0.926840000000     0.754490000000     0.0395154  
H71      H      0.400980000000     0.993200000000     0.885510000000     0.0464365  
H72      H      0.364750000000     0.939170000000     0.830840000000     0.0397861  
H73      H      0.151950000000     0.145340000000     0.856720000000     0.0397019  
H74      H      0.114760000000     0.135310000000     0.780360000000     0.0395357  
H75      H      0.151540000000     0.084730000000     0.723680000000     0.0472213  
H76      H      0.152220000000     0.093910000000     0.898670000000     0.0490441  
H77      H      0.216030000000     0.104050000000     0.851960000000     0.049738   
H78      H      0.193840000000     0.042010000000     0.847990000000     0.0447391  
H79      H      0.087360000000     0.077630000000     0.769060000000     0.0493026  
H80      H      0.148880000000     0.029050000000     0.760330000000     0.0432341  
H81      H      0.046080000000     0.826100000000     0.347870000000     0.0406343  
H82      H      0.054770000000     0.819500000000     0.441180000000     0.0421097  
H83      H      0.082360000000     0.736950000000     0.463590000000     0.0502173  
H84      H      0.090620000000     0.835180000000     0.313810000000     0.0468087  
H85      H      0.064260000000     0.744710000000     0.313860000000     0.0468033  
H86      H      0.114840000000     0.750850000000     0.333620000000     0.0406481  
H87      H      0.104170000000     0.827650000000     0.464340000000     0.0509933  
H88      H      0.126050000000     0.747810000000     0.428450000000     0.0426624  
H89      H      0.205320000000     0.983330000000     0.572740000000     0.0440621  
H90      H      0.205920000000     0.083290000000     0.538030000000     0.0431962  
H91      H      0.272660000000     0.117580000000     0.549150000000     0.0478555  
H92      H      0.227980000000     0.937020000000     0.534600000000     0.0507821  
H93      H      0.271970000000     0.963430000000     0.601640000000     0.0492848  
H94      H      0.293210000000     0.975640000000     0.544630000000     0.0408586  
H95      H      0.229210000000     0.090510000000     0.481510000000     0.0482743  
H96      H      0.293950000000     0.067960000000     0.513340000000     0.0404861  
H97      H      0.297420000000     0.246940000000     0.204830000000     0.042898   
H98      H      0.301260000000     0.246550000000     0.298700000000     0.0410578  
H99      H      0.370570000000     0.236090000000     0.322130000000     0.0472837  
H100     H      0.309770000000     0.305470000000     0.175290000000     0.051384   
H101     H      0.364280000000     0.241150000000     0.170600000000     0.0511206  
H102     H      0.379300000000     0.298340000000     0.200630000000     0.0426517  
H103     H      0.317730000000     0.304290000000     0.326780000000     0.0476428  
H104     H      0.384290000000     0.294890000000     0.293830000000     0.0410406  
H105     H      0.020190000000     0.986150000000     0.122460000000     0.0394467  
H106     H      0.032660000000     0.083280000000     0.100900000000     0.0422886  
H107     H      0.015450000000     0.099990000000     0.020410000000     0.0479642  
H108     H      0.467550000000     0.968400000000     0.131000000000     0.0466371  
H109     H      0.998390000000     0.942610000000     0.053300000000     0.0474103  
H110     H      0.449920000000     0.977540000000     0.049890000000     0.0422831  
H111     H      0.482810000000     0.126040000000     0.094900000000     0.0510427  
H112     H      0.457640000000     0.080930000000     0.027370000000     0.044083   
H113     H      0.269870000000     0.051540000000     0.267670000000     0.0430652  
H114     H      0.318450000000     0.990660000000     0.338460000000     0.0431972  
H115     H      0.290480000000     0.905440000000     0.336600000000     0.0472415  
H116     H      0.284890000000     0.034740000000     0.209190000000     0.0470283  
H117     H      0.221370000000     0.991610000000     0.237470000000     0.0487967  
H118     H      0.259810000000     0.949150000000     0.217170000000     0.0390894  
H119     H      0.352830000000     0.950300000000     0.307800000000     0.0484803  
H120     H      0.299970000000     0.899640000000     0.274490000000     0.0388387  
H121     H      0.063820000000     0.074770000000     0.284360000000     0.0443375  
H122     H      0.013680000000     0.016740000000     0.359380000000     0.0446803  
H123     H      0.042930000000     0.041950000000     0.433550000000     0.0478857  
H124     H      0.048460000000     0.140170000000     0.284670000000     0.0477475  
H125     H      0.112180000000     0.121400000000     0.330180000000     0.0491675  
H126     H      0.073770000000     0.153910000000     0.362660000000     0.0389304  
H127     H      0.980330000000     0.061480000000     0.386140000000     0.0491928  
H128     H      0.034050000000     0.108420000000     0.421630000000     0.038932   
H129     H      0.661730000000     0.536270000000     0.367900000000     0.0444362  
H130     H      0.610480000000     0.487380000000     0.292500000000     0.0435627  
H131     H      0.628410000000     0.397930000000     0.294530000000     0.0473481  
H132     H      0.641280000000     0.523100000000     0.424940000000     0.0479901  
H133     H      0.699470000000     0.466640000000     0.402750000000     0.0494302  
H134     H      0.654480000000     0.432820000000     0.417470000000     0.0394867  
H135     H      0.570000000000     0.453660000000     0.319330000000     0.0493416  
H136     H      0.614080000000     0.392600000000     0.355390000000     0.0392177  
H137     H      0.908410000000     0.498730000000     0.283690000000     0.0432768  
H138     H      0.859700000000     0.550680000000     0.357070000000     0.0426916  
H139     H      0.880900000000     0.639120000000     0.356280000000     0.0478109  
H140     H      0.890140000000     0.513210000000     0.225900000000     0.0468168  
H141     H      0.950690000000     0.564450000000     0.249920000000     0.0500288  
H142     H      0.908130000000     0.602080000000     0.233340000000     0.0394704  
H143     H      0.820760000000     0.587740000000     0.330750000000     0.0488792  
H144     H      0.867670000000     0.645810000000     0.295210000000     0.0394225  
H145     H      0.737210000000     0.590950000000     0.093440000000     0.0417515  
H146     H      0.747200000000     0.495570000000     0.052540000000     0.0433156  
H147     H      0.711250000000     0.432120000000     0.098980000000     0.0512408  
H148     H      0.689100000000     0.619210000000     0.084680000000     0.0482732  
H149     H      0.698630000000     0.579230000000     0.164760000000     0.047168   
H150     H      0.656970000000     0.554590000000     0.132150000000     0.0408552  
H151     H      0.705060000000     0.472630000000     0.019750000000     0.0492388  
H152     H      0.665110000000     0.465810000000     0.090970000000     0.0421189  
H153     H      0.983710000000     0.593170000000     0.580380000000     0.0440348  
H154     H      0.503290000000     0.490690000000     0.557830000000     0.0423636  
H155     H      0.446700000000     0.438160000000     0.578170000000     0.0476969  
H156     H      0.949960000000     0.624190000000     0.540400000000     0.0498698  
H157     H      0.916600000000     0.594080000000     0.613900000000     0.0503338  
H158     H      0.895880000000     0.568120000000     0.560690000000     0.0411962  
H159     H      0.480180000000     0.469360000000     0.504340000000     0.0474534  
H160     H      0.912750000000     0.473980000000     0.538950000000     0.0400979  
H161     H      0.838910000000     0.642350000000     0.869260000000     0.039035   
H162     H      0.803550000000     0.659240000000     0.793060000000     0.0396869  
H163     H      0.807170000000     0.585870000000     0.741740000000     0.0494546  
H164     H      0.814030000000     0.607740000000     0.915370000000     0.0478766  
H165     H      0.866300000000     0.557090000000     0.872100000000     0.0485407  
H166     H      0.817690000000     0.528720000000     0.870590000000     0.043922   
H167     H      0.753690000000     0.635750000000     0.784480000000     0.0492902  
H168     H      0.777060000000     0.548210000000     0.780630000000     0.0443008  
H169     H      0.577390000000     0.442450000000     0.856780000000     0.0398551  
H170     H      0.603430000000     0.480360000000     0.779670000000     0.0398343  
H171     H      0.052510000000     0.532950000000     0.740040000000     0.046808   
H172     H      0.573890000000     0.482710000000     0.907840000000     0.0486792  
H173     H      0.508190000000     0.464910000000     0.867490000000     0.0492172  
H174     H      0.519890000000     0.531370000000     0.873090000000     0.0436361  
H175     H      0.619100000000     0.545970000000     0.778680000000     0.0493188  
H176     H      0.550580000000     0.575290000000     0.788210000000     0.042477   
H177     H      0.635290000000     0.812470000000     0.976780000000     0.0413537  
H178     H      0.565030000000     0.770720000000     0.962720000000     0.0418078  
H179     H      0.535990000000     0.802080000000     0.889250000000     0.0480042  
H180     H      0.676790000000     0.788120000000     0.943730000000     0.0479828  
H181     H      0.650710000000     0.871420000000     0.912850000000     0.0474692  
H182     H      0.648610000000     0.820710000000     0.870370000000     0.0401818  
H183     H      0.561770000000     0.719260000000     0.920970000000     0.0471587  
H184     H      0.577150000000     0.777180000000     0.855880000000     0.0400716  
H185     H      0.818720000000     0.302400000000     0.675750000000     0.0420253  
H186     H      0.891490000000     0.259850000000     0.671560000000     0.0418241  
H187     H      0.931280000000     0.294200000000     0.735480000000     0.0476976  
H188     H      0.784310000000     0.275610000000     0.717480000000     0.04766    
H189     H      0.813290000000     0.357950000000     0.744680000000     0.0482367  
H190     H      0.824820000000     0.305770000000     0.783360000000     0.0402809  
H191     H      0.901560000000     0.209210000000     0.712470000000     0.0474485  
H192     H      0.898440000000     0.267370000000     0.778880000000     0.0401248  
H193     H      0.942270000000     0.030480000000     0.759450000000     0.0458401  
H194     H      0.899810000000     0.054430000000     0.846760000000     0.0436675  
H195     H      0.837390000000     0.006060000000     0.846340000000     0.0509807  
H196     H      0.962530000000     0.967230000000     0.760130000000     0.0500992  
H197     H      0.897240000000     0.976460000000     0.715410000000     0.0486839  
H198     H      0.897290000000     0.928950000000     0.761130000000     0.0396949  
H199     H      0.902680000000     0.003330000000     0.888770000000     0.0477935  
H200     H      0.864090000000     0.947160000000     0.838160000000     0.039967   
H201     H      0.650360000000     0.146170000000     0.858610000000     0.0397582  
H202     H      0.613310000000     0.137130000000     0.782150000000     0.0396322  
H203     H      0.650290000000     0.087580000000     0.724890000000     0.0471793  
H204     H      0.650670000000     0.094190000000     0.899970000000     0.0489592  
H205     H      0.714520000000     0.105190000000     0.853510000000     0.0498915  
H206     H      0.692490000000     0.043130000000     0.848830000000     0.0444954  
H207     H      0.586040000000     0.079550000000     0.770060000000     0.049572   
H208     H      0.647620000000     0.031290000000     0.760730000000     0.0431447  
H209     H      0.546800000000     0.825670000000     0.349380000000     0.0407496  
H210     H      0.555550000000     0.819180000000     0.442690000000     0.0421742  
H211     H      0.583280000000     0.736700000000     0.465060000000     0.0502518  
H212     H      0.591290000000     0.834960000000     0.315280000000     0.0469591  
H213     H      0.565230000000     0.744380000000     0.315310000000     0.0469377  
H214     H      0.615780000000     0.750760000000     0.335150000000     0.0406801  
H215     H      0.604950000000     0.827490000000     0.465800000000     0.0509916  
H216     H      0.626950000000     0.747710000000     0.429930000000     0.0426375  
H217     H      0.703970000000     0.984890000000     0.574390000000     0.0439594  
H218     H      0.705590000000     0.084410000000     0.538860000000     0.0431791  
H219     H      0.772400000000     0.118200000000     0.550770000000     0.0479153  
H220     H      0.726810000000     0.937950000000     0.537060000000     0.0508081  
H221     H      0.770090000000     0.964650000000     0.604660000000     0.0493733  
H222     H      0.792150000000     0.975940000000     0.547930000000     0.0410121  
H223     H      0.729590000000     0.090850000000     0.482670000000     0.0482037  
H224     H      0.793820000000     0.068030000000     0.515730000000     0.0405649  
H225     H      0.794460000000     0.243590000000     0.206650000000     0.0426701  
H226     H      0.801630000000     0.245540000000     0.299940000000     0.0409205  
H227     H      0.871700000000     0.235990000000     0.320420000000     0.047469   
H228     H      0.805700000000     0.301290000000     0.175150000000     0.0515125  
H229     H      0.859960000000     0.236640000000     0.169270000000     0.0508845  
H230     H      0.876100000000     0.294740000000     0.196920000000     0.0428396  
H231     H      0.818860000000     0.303980000000     0.326120000000     0.0476965  
H232     H      0.884290000000     0.294050000000     0.290170000000     0.0413306  
H233     H      0.517870000000     0.989290000000     0.121400000000     0.0400934  
H234     H      0.527260000000     0.088020000000     0.097300000000     0.0421521  
H235     H      0.507800000000     0.101170000000     0.015680000000     0.0489165  
H236     H      0.969510000000     0.966760000000     0.132200000000     0.0466001  
H237     H      0.496130000000     0.943270000000     0.052180000000     0.0474512  
H238     H      0.952680000000     0.978210000000     0.049990000000     0.0423508  
H239     H      0.990080000000     0.124760000000     0.099510000000     0.0519561  
H240     H      0.964070000000     0.082860000000     0.029370000000     0.0439708  
H241     H      0.770700000000     0.049450000000     0.266940000000     0.0430786  
H242     H      0.819460000000     0.990840000000     0.339480000000     0.0433267  
H243     H      0.791720000000     0.905500000000     0.339740000000     0.0472691  
H244     H      0.785870000000     0.030790000000     0.209000000000     0.0471413  
H245     H      0.722390000000     0.988380000000     0.238460000000     0.048823   
H246     H      0.760910000000     0.945470000000     0.219250000000     0.0390953  
H247     H      0.853940000000     0.949770000000     0.309800000000     0.048626   
H248     H      0.801240000000     0.897910000000     0.277800000000     0.0388711  
H249     H      0.564140000000     0.072560000000     0.283550000000     0.0443039  
H250     H      0.514120000000     0.016800000000     0.359090000000     0.0445286  
H251     H      0.543500000000     0.042910000000     0.433010000000     0.0480152  
H252     H      0.549420000000     0.138210000000     0.282440000000     0.0477725  
H253     H      0.612980000000     0.119890000000     0.328200000000     0.0492001  
H254     H      0.574830000000     0.153400000000     0.360250000000     0.039076   
H255     H      0.480940000000     0.062000000000     0.385540000000     0.0485952  
H256     H      0.534930000000     0.109250000000     0.420200000000     0.0391821  
In1      In     0.417730000000     0.092960000000     0.237520000000     2.40549    
In2      In     0.165060000000     0.966160000000     0.388780000000     2.40338    
In3      In     0.292530000000     0.093980000000     0.712220000000     2.39929    
In4      In     0.041180000000     0.981880000000     0.898310000000     2.39858    
In5      In     0.419020000000     0.473100000000     0.738020000000     2.38872    
In6      In     0.173340000000     0.610170000000     0.920350000000     2.39115    
In7      In     0.014740000000     0.599020000000     0.394650000000     2.39375    
In8      In     0.260010000000     0.448840000000     0.254320000000     2.40171    
In9      In     0.918060000000     0.091690000000     0.237230000000     2.40572    
In10     In     0.665680000000     0.966060000000     0.390010000000     2.40188    
In11     In     0.791480000000     0.096230000000     0.714090000000     2.39717    
In12     In     0.540180000000     0.981250000000     0.897820000000     2.3995     
In13     In     0.918720000000     0.474860000000     0.737420000000     2.38888    
In14     In     0.673430000000     0.610260000000     0.919750000000     2.39227    
In15     In     0.515590000000     0.598810000000     0.396040000000     2.39539    
In16     In     0.759850000000     0.447400000000     0.253280000000     2.40124    
N1       N      0.167480000000     0.434970000000     0.345580000000    -0.166739   
N2       N      0.105100000000     0.500760000000     0.365890000000    -0.165809   
N3       N      0.419210000000     0.601950000000     0.309070000000    -0.165826   
N4       N      0.354200000000     0.540770000000     0.285560000000    -0.166581   
N5       N      0.204860000000     0.505320000000     0.137730000000    -0.166068   
N6       N      0.199560000000     0.549600000000     0.048310000000    -0.165308   
N7       N      0.430620000000     0.513830000000     0.600650000000    -0.165164   
N8       N      0.970030000000     0.549500000000     0.519800000000    -0.166018   
N9       N      0.335820000000     0.557930000000     0.806520000000    -0.165228   
N10      N      0.280470000000     0.618420000000     0.853510000000    -0.166737   
N11      N      0.024270000000     0.505120000000     0.803120000000    -0.166798   
N12      N      0.098860000000     0.517960000000     0.845520000000    -0.165355   
N13      N      0.092440000000     0.841120000000     0.897760000000    -0.168093   
N14      N      0.121200000000     0.749640000000     0.934170000000    -0.168356   
N15      N      0.374290000000     0.328550000000     0.742720000000    -0.167623   
N16      N      0.342470000000     0.235890000000     0.711610000000    -0.167985   
N17      N      0.366110000000     0.991200000000     0.774010000000    -0.165941   
N18      N      0.437460000000     0.989910000000     0.823060000000    -0.166322   
N19      N      0.188580000000     0.085380000000     0.785560000000    -0.165533   
N20      N      0.117350000000     0.081970000000     0.836040000000    -0.165276   
N21      N      0.074150000000     0.734520000000     0.388230000000    -0.166999   
N22      N      0.097610000000     0.837060000000     0.389200000000    -0.166009   
N23      N      0.273450000000     0.042170000000     0.579460000000    -0.16618    
N24      N      0.222550000000     0.013310000000     0.506760000000    -0.164283   
N25      N      0.370780000000     0.235520000000     0.246150000000    -0.166444   
N26      N      0.310090000000     0.307690000000     0.251390000000    -0.166144   
N27      N      0.003710000000     0.020090000000     0.029570000000    -0.166126   
N28      N      0.475290000000     0.048550000000     0.118400000000    -0.165548   
N29      N      0.252930000000     0.950020000000     0.291070000000    -0.166582   
N30      N      0.320900000000     0.004350000000     0.265130000000    -0.165498   
N31      N      0.080230000000     0.076210000000     0.380760000000    -0.166344   
N32      N      0.012720000000     0.088860000000     0.325990000000    -0.166174   
N33      N      0.667300000000     0.434000000000     0.344620000000    -0.166872   
N34      N      0.605380000000     0.500220000000     0.365750000000    -0.165686   
N35      N      0.919090000000     0.601110000000     0.306560000000    -0.165701   
N36      N      0.854120000000     0.539610000000     0.283630000000    -0.166713   
N37      N      0.705460000000     0.503590000000     0.136130000000    -0.165967   
N38      N      0.700350000000     0.549070000000     0.047230000000    -0.16539    
N39      N      0.929540000000     0.514910000000     0.599780000000    -0.165052   
N40      N      0.472270000000     0.548810000000     0.521690000000    -0.165886   
N41      N      0.835670000000     0.560310000000     0.805480000000    -0.16528    
N42      N      0.780080000000     0.620690000000     0.852140000000    -0.166619   
N43      N      0.524620000000     0.503710000000     0.803460000000    -0.166432   
N44      N      0.599210000000     0.516980000000     0.845720000000    -0.165342   
N45      N      0.592280000000     0.840990000000     0.897720000000    -0.168211   
N46      N      0.620640000000     0.749280000000     0.934010000000    -0.168365   
N47      N      0.873950000000     0.330380000000     0.742790000000    -0.167522   
N48      N      0.841380000000     0.238140000000     0.711770000000    -0.168052   
N49      N      0.865190000000     0.995550000000     0.778650000000    -0.165713   
N50      N      0.937610000000     0.994050000000     0.825560000000    -0.166511   
N51      N      0.687220000000     0.087250000000     0.786850000000    -0.165502   
N52      N      0.615950000000     0.082950000000     0.837130000000    -0.165191   
N53      N      0.575090000000     0.734250000000     0.389700000000    -0.167062   
N54      N      0.598320000000     0.836870000000     0.390670000000    -0.166058   
N55      N      0.772460000000     0.043090000000     0.581750000000    -0.165896   
N56      N      0.722180000000     0.013980000000     0.508440000000    -0.164236   
N57      N      0.869370000000     0.233380000000     0.244510000000    -0.166505   
N58      N      0.808790000000     0.305590000000     0.251080000000    -0.166006   
N59      N      0.499390000000     0.020740000000     0.027290000000    -0.165332   
N60      N      0.979120000000     0.046960000000     0.120700000000    -0.165257   
N61      N      0.754050000000     0.948540000000     0.293090000000    -0.166627   
N62      N      0.821880000000     0.002430000000     0.265830000000    -0.165177   
N63      N      0.580930000000     0.076050000000     0.379710000000    -0.166398   
N64      N      0.513290000000     0.088540000000     0.325010000000    -0.166094   
O1       O      0.447180000000     0.073450000000     0.307820000000    -0.489558   
O2       O      0.481710000000     0.112660000000     0.256660000000    -0.506482   
O3       O      0.440840000000     0.031170000000     0.187030000000    -0.505146   
O4       O      0.353400000000     0.067860000000     0.223890000000    -0.505246   
O5       O      0.397790000000     0.163070000000     0.279470000000    -0.50689    
O6       O      0.387130000000     0.025800000000     0.273820000000    -0.492733   
O7       O      0.447710000000     0.108810000000     0.167370000000    -0.495131   
O8       O      0.390740000000     0.164280000000     0.205160000000    -0.496574   
O9       O      0.225360000000     0.935470000000     0.364190000000    -0.509481   
O10      O      0.190830000000     0.977350000000     0.314900000000    -0.495826   
O11      O      0.195060000000     0.027180000000     0.433580000000    -0.505064   
O12      O      0.139950000000     0.040190000000     0.358520000000    -0.491401   
O13      O      0.128500000000     0.904260000000     0.351210000000    -0.505566   
O14      O      0.105920000000     0.001590000000     0.410630000000    -0.507238   
O15      O      0.194890000000     0.951160000000     0.459550000000    -0.489583   
O16      O      0.136660000000     0.897900000000     0.425110000000    -0.494835   
O17      O      0.346310000000     0.148020000000     0.712610000000    -0.507402   
O18      O      0.288750000000     0.181110000000     0.712400000000    -0.509804   
O19      O      0.280650000000     0.030650000000     0.659320000000    -0.498592   
O20      O      0.345160000000     0.038810000000     0.710500000000    -0.491064   
O21      O      0.256260000000     0.098900000000     0.780010000000    -0.487786   
O22      O      0.313910000000     0.047940000000     0.775070000000    -0.494221   
O23      O      0.283650000000     0.106650000000     0.633350000000    -0.505866   
O24      O      0.224770000000     0.085020000000     0.716430000000    -0.500961   
O25      O      0.094860000000     0.928640000000     0.904860000000    -0.511474   
O26      O      0.038620000000     0.895130000000     0.890900000000    -0.506254   
O27      O      0.028960000000     0.039970000000     0.956290000000    -0.496193   
O28      O      0.094460000000     0.036580000000     0.900280000000    -0.490204   
O29      O      0.004390000000     0.974070000000     0.830900000000    -0.485225   
O30      O      0.063140000000     0.028280000000     0.835710000000    -0.497577   
O31      O      0.021630000000     0.961400000000     0.972920000000    -0.504842   
O32      O      0.975080000000     0.999050000000     0.893070000000    -0.506561   
O33      O      0.368050000000     0.415870000000     0.739870000000    -0.51172    
O34      O      0.426660000000     0.385790000000     0.739630000000    -0.498605   
O35      O      0.418690000000     0.531620000000     0.678840000000    -0.490186   
O36      O      0.363980000000     0.524350000000     0.739270000000    -0.485583   
O37      O      0.461830000000     0.467850000000     0.800770000000    -0.490938   
O38      O      0.393190000000     0.509690000000     0.804200000000    -0.497117   
O39      O      0.431780000000     0.454580000000     0.660800000000    -0.501489   
O40      O      0.482560000000     0.505060000000     0.739230000000    -0.504453   
O41      O      0.118790000000     0.662260000000     0.925730000000    -0.509896   
O42      O      0.175800000000     0.696690000000     0.929770000000    -0.507198   
O43      O      0.189160000000     0.543340000000     0.968210000000    -0.49278    
O44      O      0.124830000000     0.548810000000     0.915230000000    -0.491679   
O45      O      0.212000000000     0.624820000000     0.855210000000    -0.489136   
O46      O      0.148520000000     0.578340000000     0.851480000000    -0.493717   
O47      O      0.180150000000     0.615930000000     0.000100000000    -0.501873   
O48      O      0.241210000000     0.604230000000     0.918590000000    -0.502533   
O49      O      0.984530000000     0.582840000000     0.324210000000    -0.489391   
O50      O      0.950300000000     0.620280000000     0.376750000000    -0.502973   
O51      O      0.997710000000     0.535880000000     0.446510000000    -0.504675   
O52      O      0.077310000000     0.567950000000     0.406560000000    -0.503711   
O53      O      0.038800000000     0.668510000000     0.354200000000    -0.50605    
O54      O      0.041120000000     0.530800000000     0.355620000000    -0.487666   
O55      O      0.984870000000     0.612410000000     0.465790000000    -0.492659   
O56      O      0.046940000000     0.666460000000     0.428160000000    -0.498063   
O57      O      0.197080000000     0.422690000000     0.273320000000    -0.507188   
O58      O      0.231750000000     0.457760000000     0.326830000000    -0.49389    
O59      O      0.231750000000     0.514280000000     0.212160000000    -0.505416   
O60      O      0.289010000000     0.514740000000     0.294250000000    -0.493902   
O61      O      0.285390000000     0.377940000000     0.290640000000    -0.504754   
O62      O      0.323520000000     0.477830000000     0.241750000000    -0.50729    
O63      O      0.234890000000     0.441200000000     0.180210000000    -0.492581   
O64      O      0.284870000000     0.379700000000     0.215900000000    -0.492711   
O65      O      0.947050000000     0.072170000000     0.307770000000    -0.487961   
O66      O      0.981400000000     0.113040000000     0.257520000000    -0.505325   
O67      O      0.941530000000     0.029810000000     0.187020000000    -0.505703   
O68      O      0.854140000000     0.065140000000     0.223290000000    -0.504267   
O69      O      0.898180000000     0.162370000000     0.278260000000    -0.507636   
O70      O      0.887860000000     0.025010000000     0.274610000000    -0.491731   
O71      O      0.950200000000     0.107410000000     0.168360000000    -0.496272   
O72      O      0.889230000000     0.161570000000     0.204220000000    -0.497323   
O73      O      0.726290000000     0.935450000000     0.366350000000    -0.509242   
O74      O      0.691790000000     0.976050000000     0.316140000000    -0.495417   
O75      O      0.695550000000     0.027360000000     0.434710000000    -0.504353   
O76      O      0.640820000000     0.039680000000     0.358600000000    -0.49143    
O77      O      0.629230000000     0.903970000000     0.352580000000    -0.50535    
O78      O      0.606480000000     0.002000000000     0.410980000000    -0.507142   
O79      O      0.694710000000     0.951600000000     0.461330000000    -0.48923    
O80      O      0.637200000000     0.897930000000     0.426520000000    -0.494358   
O81      O      0.845230000000     0.150280000000     0.712370000000    -0.50783    
O82      O      0.787690000000     0.183360000000     0.714400000000    -0.510105   
O83      O      0.779500000000     0.032330000000     0.661760000000    -0.497137   
O84      O      0.843160000000     0.039450000000     0.713360000000    -0.490226   
O85      O      0.754920000000     0.100650000000     0.781680000000    -0.486689   
O86      O      0.813910000000     0.053620000000     0.778440000000    -0.493643   
O87      O      0.782910000000     0.108050000000     0.635090000000    -0.505727   
O88      O      0.723630000000     0.087540000000     0.717860000000    -0.500232   
O89      O      0.594070000000     0.928470000000     0.905620000000    -0.511056   
O90      O      0.538360000000     0.894590000000     0.889690000000    -0.507701   
O91      O      0.525260000000     0.040110000000     0.954220000000    -0.497593   
O92      O      0.593210000000     0.036320000000     0.900690000000    -0.49108    
O93      O      0.504900000000     0.974370000000     0.829260000000    -0.483452   
O94      O      0.562010000000     0.028840000000     0.835950000000    -0.496097   
O95      O      0.520810000000     0.961690000000     0.972700000000    -0.505205   
O96      O      0.473500000000     0.993770000000     0.891720000000    -0.505543   
O97      O      0.867740000000     0.417730000000     0.740670000000    -0.511362   
O98      O      0.926300000000     0.387540000000     0.738470000000    -0.498047   
O99      O      0.918230000000     0.533140000000     0.678020000000    -0.490323   
O100     O      0.863440000000     0.525660000000     0.738480000000    -0.485651   
O101     O      0.961540000000     0.469150000000     0.800110000000    -0.491395   
O102     O      0.893260000000     0.512500000000     0.803300000000    -0.497096   
O103     O      0.931270000000     0.456030000000     0.660220000000    -0.501457   
O104     O      0.982230000000     0.506990000000     0.738860000000    -0.504235   
O105     O      0.618670000000     0.662030000000     0.924400000000    -0.510186   
O106     O      0.675480000000     0.696670000000     0.930270000000    -0.507046   
O107     O      0.690770000000     0.543520000000     0.966950000000    -0.493536   
O108     O      0.625110000000     0.548620000000     0.915150000000    -0.492334   
O109     O      0.711520000000     0.625290000000     0.854240000000    -0.489412   
O110     O      0.648720000000     0.577640000000     0.851150000000    -0.493343   
O111     O      0.679490000000     0.615180000000     0.999620000000    -0.502153   
O112     O      0.741370000000     0.606220000000     0.917630000000    -0.502338   
O113     O      0.484820000000     0.583650000000     0.325730000000    -0.490011   
O114     O      0.450910000000     0.619960000000     0.379220000000    -0.50329    
O115     O      0.499050000000     0.535440000000     0.447900000000    -0.504954   
O116     O      0.578130000000     0.567290000000     0.407120000000    -0.503773   
O117     O      0.539650000000     0.668330000000     0.355670000000    -0.506218   
O118     O      0.541430000000     0.530710000000     0.356320000000    -0.487705   
O119     O      0.486330000000     0.611890000000     0.467580000000    -0.492857   
O120     O      0.547950000000     0.666120000000     0.429590000000    -0.498065   
O121     O      0.696700000000     0.421970000000     0.272200000000    -0.507681   
O122     O      0.731740000000     0.456000000000     0.325920000000    -0.494652   
O123     O      0.730780000000     0.512390000000     0.211330000000    -0.504882   
O124     O      0.788830000000     0.514000000000     0.292250000000    -0.494698   
O125     O      0.785970000000     0.377140000000     0.289920000000    -0.504423   
O126     O      0.823550000000     0.475830000000     0.240740000000    -0.507743   
O127     O      0.736350000000     0.440040000000     0.178430000000    -0.491738   
O128     O      0.782870000000     0.376980000000     0.215250000000    -0.491698   


