data_structure

_audit_creation_method RASPA-1.0
_audit_creation_date 2023-6-5
_audit_author_name 'Poobodin Mano'

_cell_length_a    29.2677
_cell_length_b    31.7006
_cell_length_c    34.2332
_cell_angle_alpha 89.5592
_cell_angle_beta  90.4409
_cell_angle_gamma 89.9991
_cell_volume      31759.8

_symmetry_cell_setting          triclinic
_symmetry_space_group_name_Hall 'P 1'
_symmetry_space_group_name_H-M  'P 1'
_symmetry_Int_Tables_number     1

_symmetry_equiv_pos_as_xyz 'x,y,z'

loop_
_atom_site_label
_atom_site_type_symbol
_atom_site_fract_x
_atom_site_fract_y
_atom_site_fract_z
_atom_site_charge
C1       C      0.348940000000     0.417360000000     0.977430000000     0.403746   
C2       C      0.334220000000     0.305680000000     0.419550000000     0.404458   
C3       C      0.450850000000     0.317220000000     0.512110000000     0.404037   
C4       C      0.318370000000     0.293900000000     0.047080000000     0.413693   
C5       C      0.351700000000     0.587730000000     0.496780000000     0.410416   
C6       C      0.320890000000     0.708240000000     0.072410000000     0.412395   
C7       C      0.449920000000     0.686030000000     0.025540000000     0.40463    
C8       C      0.321190000000     0.702220000000     0.443760000000     0.415387   
C9       C      0.633800000000     0.318010000000     0.000070000000     0.410866   
C10      C      0.760140000000     0.296580000000     0.416230000000     0.406354   
C11      C      0.734210000000     0.412560000000     0.467040000000     0.408315   
C12      C      0.763190000000     0.290300000000     0.043230000000     0.4029     
C13      C      0.735810000000     0.582410000000     0.952320000000     0.402116   
C14      C      0.747570000000     0.699320000000     0.402850000000     0.404227   
C15      C      0.627160000000     0.669620000000     0.490960000000     0.411631   
C16      C      0.752430000000     0.701080000000     0.032620000000     0.410122   
C17      C      0.841540000000     0.082720000000     0.226460000000     0.414665   
C18      C      0.829930000000     0.198240000000     0.302270000000     0.417449   
C19      C      0.954010000000     0.168610000000     0.231210000000     0.416456   
C20      C      0.820260000000     0.211820000000     0.177470000000     0.416248   
C21      C      0.945230000000     0.836650000000     0.227350000000     0.40904    
C22      C      0.813110000000     0.794130000000     0.280380000000     0.416894   
C23      C      0.826550000000     0.914140000000     0.211230000000     0.407624   
C24      C      0.829570000000     0.788620000000     0.154490000000     0.405313   
C25      C      0.126180000000     0.823080000000     0.259360000000     0.418335   
C26      C      0.260560000000     0.790710000000     0.202690000000     0.408076   
C27      C      0.230460000000     0.917160000000     0.254280000000     0.406837   
C28      C      0.252580000000     0.800790000000     0.327850000000     0.407587   
C29      C      0.140210000000     0.178900000000     0.244250000000     0.410712   
C30      C      0.270750000000     0.204390000000     0.305300000000     0.416107   
C31      C      0.251280000000     0.086030000000     0.238130000000     0.414521   
C32      C      0.268320000000     0.209340000000     0.178510000000     0.406825   
C33      C      0.210370000000     0.984100000000     0.221230000000    -0.0122842  
C34      C      0.259920000000     0.983600000000     0.282190000000    -0.0423149  
C35      C      0.240820000000     0.018560000000     0.204050000000    -0.00958707 
C36      C      0.289090000000     0.018910000000     0.264030000000     0.0933461  
C37      C      0.022470000000     0.815780000000     0.205630000000    -0.0131209  
C38      C      0.012580000000     0.864970000000     0.262340000000    -0.0421307  
C39      C      0.057890000000     0.790700000000     0.229430000000    -0.0101078  
C40      C      0.047130000000     0.838670000000     0.286030000000     0.0951495  
C41      C      0.828150000000     0.981520000000     0.174470000000    -0.0114236  
C42      C      0.784310000000     0.976120000000     0.235930000000    -0.0399382  
C43      C      0.856040000000     0.018250000000     0.190220000000    -0.00943772 
C44      C      0.808860000000     0.015000000000     0.252850000000     0.0932722  
C45      C      0.066630000000     0.159590000000     0.274490000000    -0.0119345  
C46      C      0.069460000000     0.215150000000     0.222200000000    -0.0409991  
C47      C      0.026980000000     0.138210000000     0.253320000000    -0.0100096  
C48      C      0.028200000000     0.194820000000     0.201470000000     0.092716   
C49      C      0.813350000000     0.723210000000     0.363690000000    -0.0124094  
C50      C      0.734350000000     0.724100000000     0.334920000000    -0.0414862  
C51      C      0.821690000000     0.767500000000     0.347580000000    -0.0102231  
C52      C      0.743320000000     0.768080000000     0.317150000000     0.0937385  
C53      C      0.802840000000     0.788690000000     0.085900000000    -0.0126927  
C54      C      0.829060000000     0.721610000000     0.117840000000    -0.0410031  
C55      C      0.760680000000     0.766320000000     0.069930000000    -0.0100452  
C56      C      0.787780000000     0.698030000000     0.100420000000     0.0932901  
C57      C      0.750300000000     0.263540000000     0.351430000000    -0.0130487  
C58      C      0.828800000000     0.276220000000     0.379010000000    -0.0418649  
C59      C      0.763700000000     0.218070000000     0.342130000000    -0.0100803  
C60      C      0.841980000000     0.230560000000     0.369440000000     0.0932214  
C61      C      0.782850000000     0.224360000000     0.078480000000    -0.0129538  
C62      C      0.811970000000     0.294160000000     0.102500000000    -0.0422685  
C63      C      0.769110000000     0.212590000000     0.120100000000    -0.0101639  
C64      C      0.799180000000     0.281490000000     0.144460000000     0.0936689  
C65      C      0.718010000000     0.516290000000     0.417320000000    -0.0120556  
C66      C      0.787370000000     0.520860000000     0.959010000000    -0.0402118  
C67      C      0.701760000000     0.477050000000     0.939180000000    -0.00999465 
C68      C      0.774260000000     0.480600000000     0.981580000000     0.0934604  
C69      C      0.319230000000     0.779910000000     0.368570000000    -0.0124317  
C70      C      0.239390000000     0.767570000000     0.392430000000    -0.0419038  
C71      C      0.331230000000     0.734040000000     0.378500000000    -0.0104421  
C72      C      0.251740000000     0.721580000000     0.402150000000     0.0935147  
C73      C      0.307040000000     0.792030000000     0.142660000000    -0.0126807  
C74      C      0.287720000000     0.723310000000     0.175240000000    -0.0408523  
C75      C      0.293990000000     0.773470000000     0.103060000000    -0.0105846  
C76      C      0.275530000000     0.704230000000     0.135350000000     0.0930761  
C77      C      0.520500000000     0.726290000000     0.512130000000    -0.0115013  
C78      C      0.523470000000     0.662730000000     0.054640000000    -0.0395723  
C79      C      0.554270000000     0.706800000000     0.483750000000    -0.0105026  
C80      C      0.559090000000     0.641930000000     0.028130000000     0.0928799  
C81      C      0.269650000000     0.284830000000     0.376930000000    -0.0123765  
C82      C      0.350250000000     0.274550000000     0.354880000000    -0.0420014  
C83      C      0.259430000000     0.238480000000     0.368800000000    -0.00974971 
C84      C      0.339580000000     0.228140000000     0.345520000000     0.0942269  
C85      C      0.299800000000     0.274080000000     0.148110000000    -0.0123278  
C86      C      0.298350000000     0.205590000000     0.111370000000    -0.0424782  
C87      C      0.281770000000     0.296970000000     0.111600000000    -0.0108275  
C88      C      0.279300000000     0.228960000000     0.075380000000     0.0942719  
C89      C      0.521330000000     0.336610000000     0.048330000000    -0.0119299  
C90      C      0.517050000000     0.268690000000     0.013460000000    -0.0384319  
C91      C      0.564750000000     0.349150000000     0.526720000000    -0.00975071 
C92      C      0.561150000000     0.277970000000     0.490960000000     0.094385   
C93      C      0.371190000000     0.485700000000     0.447650000000    -0.0121936  
C94      C      0.299580000000     0.479970000000     0.485810000000    -0.040435   
C95      C      0.386650000000     0.523430000000     0.971820000000    -0.0102436  
C96      C      0.312640000000     0.518530000000     0.010430000000     0.0948934  
C97      C      0.348940000000     0.417360000000     0.477430000000     0.403857   
C98      C      0.334220000000     0.305680000000     0.919550000000     0.404185   
C99      C      0.450850000000     0.317220000000     0.012110000000     0.404886   
C100     C      0.318370000000     0.293900000000     0.547080000000     0.413793   
C101     C      0.351700000000     0.587730000000     0.996780000000     0.409677   
C102     C      0.320890000000     0.708240000000     0.572410000000     0.412605   
C103     C      0.449920000000     0.686030000000     0.525540000000     0.404316   
C104     C      0.321190000000     0.702220000000     0.943760000000     0.415507   
C105     C      0.633800000000     0.318010000000     0.500070000000     0.41011    
C106     C      0.760140000000     0.296580000000     0.916230000000     0.406204   
C107     C      0.734210000000     0.412560000000     0.967040000000     0.408246   
C108     C      0.763190000000     0.290300000000     0.543230000000     0.40295    
C109     C      0.735810000000     0.582410000000     0.452320000000     0.402559   
C110     C      0.747570000000     0.699320000000     0.902850000000     0.403987   
C111     C      0.627160000000     0.669620000000     0.990960000000     0.41012    
C112     C      0.752430000000     0.701080000000     0.532620000000     0.410218   
C113     C      0.841540000000     0.082720000000     0.726450000000     0.414666   
C114     C      0.829930000000     0.198240000000     0.802270000000     0.417447   
C115     C      0.954010000000     0.168610000000     0.731210000000     0.416458   
C116     C      0.820260000000     0.211820000000     0.677460000000     0.416268   
C117     C      0.945230000000     0.836650000000     0.727350000000     0.409012   
C118     C      0.813110000000     0.794130000000     0.780390000000     0.416894   
C119     C      0.826550000000     0.914140000000     0.711230000000     0.407648   
C120     C      0.829570000000     0.788630000000     0.654490000000     0.405332   
C121     C      0.126180000000     0.823080000000     0.759360000000     0.418549   
C122     C      0.260560000000     0.790710000000     0.702690000000     0.408073   
C123     C      0.230460000000     0.917160000000     0.754270000000     0.407066   
C124     C      0.252580000000     0.800790000000     0.827850000000     0.407549   
C125     C      0.140210000000     0.178900000000     0.744250000000     0.410711   
C126     C      0.270750000000     0.204390000000     0.805300000000     0.416103   
C127     C      0.251280000000     0.086030000000     0.738130000000     0.414519   
C128     C      0.268320000000     0.209340000000     0.678510000000     0.406821   
C129     C      0.210370000000     0.984100000000     0.721230000000    -0.0122882  
C130     C      0.259920000000     0.983600000000     0.782190000000    -0.0422682  
C131     C      0.240830000000     0.018560000000     0.704050000000    -0.00956534 
C132     C      0.289090000000     0.018910000000     0.764030000000     0.0933267  
C133     C      0.022470000000     0.815780000000     0.705630000000    -0.0131214  
C134     C      0.012580000000     0.864970000000     0.762340000000    -0.0421157  
C135     C      0.057890000000     0.790700000000     0.729430000000    -0.010098   
C136     C      0.047130000000     0.838670000000     0.786030000000     0.095119   
C137     C      0.828150000000     0.981520000000     0.674470000000    -0.0113958  
C138     C      0.784300000000     0.976120000000     0.735930000000    -0.0400207  
C139     C      0.856040000000     0.018250000000     0.690220000000    -0.00942555 
C140     C      0.808860000000     0.015000000000     0.752850000000     0.0932995  
C141     C      0.066630000000     0.159590000000     0.774480000000    -0.0118279  
C142     C      0.069460000000     0.215150000000     0.722200000000    -0.0409957  
C143     C      0.026980000000     0.138210000000     0.753320000000    -0.0100513  
C144     C      0.028200000000     0.194820000000     0.701470000000     0.0927161  
C145     C      0.813350000000     0.723210000000     0.863700000000    -0.0124386  
C146     C      0.734340000000     0.724100000000     0.834920000000    -0.0415739  
C147     C      0.821690000000     0.767500000000     0.847580000000    -0.0102065  
C148     C      0.743320000000     0.768080000000     0.817150000000     0.0937746  
C149     C      0.802840000000     0.788690000000     0.585900000000    -0.012695   
C150     C      0.829060000000     0.721610000000     0.617850000000    -0.0409933  
C151     C      0.760680000000     0.766320000000     0.569930000000    -0.0100642  
C152     C      0.787780000000     0.698030000000     0.600420000000     0.0932651  
C153     C      0.750300000000     0.263540000000     0.851430000000    -0.0131224  
C154     C      0.828800000000     0.276220000000     0.879010000000    -0.0418306  
C155     C      0.763710000000     0.218070000000     0.842130000000    -0.00997742 
C156     C      0.841980000000     0.230560000000     0.869440000000     0.0932052  
C157     C      0.782850000000     0.224360000000     0.578480000000    -0.0129423  
C158     C      0.811970000000     0.294160000000     0.602490000000    -0.0422099  
C159     C      0.769110000000     0.212590000000     0.620100000000    -0.0101705  
C160     C      0.799180000000     0.281490000000     0.644460000000     0.0936495  
C161     C      0.718010000000     0.516290000000     0.917320000000    -0.0120458  
C162     C      0.787370000000     0.520860000000     0.459010000000    -0.0403663  
C163     C      0.701770000000     0.477050000000     0.439180000000    -0.00989454 
C164     C      0.774260000000     0.480590000000     0.481580000000     0.0942049  
C165     C      0.319230000000     0.779900000000     0.868570000000    -0.0123806  
C166     C      0.239390000000     0.767570000000     0.892430000000    -0.0418889  
C167     C      0.331230000000     0.734040000000     0.878500000000    -0.0104587  
C168     C      0.251740000000     0.721580000000     0.902150000000     0.0935261  
C169     C      0.307040000000     0.792030000000     0.642660000000    -0.0127584  
C170     C      0.287720000000     0.723310000000     0.675240000000    -0.0408249  
C171     C      0.293990000000     0.773460000000     0.603060000000    -0.0104707  
C172     C      0.275530000000     0.704230000000     0.635350000000     0.0930759  
C173     C      0.520500000000     0.726290000000     0.012130000000    -0.00989013 
C174     C      0.523470000000     0.662730000000     0.554640000000    -0.0397185  
C175     C      0.554280000000     0.706800000000     0.983750000000    -0.0119232  
C176     C      0.559090000000     0.641930000000     0.528130000000     0.092962   
C177     C      0.269650000000     0.284830000000     0.876930000000    -0.0123962  
C178     C      0.350250000000     0.274550000000     0.854880000000    -0.0420231  
C179     C      0.259430000000     0.238480000000     0.868800000000    -0.00973626 
C180     C      0.339580000000     0.228140000000     0.845520000000     0.0942385  
C181     C      0.299800000000     0.274080000000     0.648110000000    -0.0123326  
C182     C      0.298350000000     0.205590000000     0.611370000000    -0.042464   
C183     C      0.281770000000     0.296970000000     0.611600000000    -0.0107904  
C184     C      0.279300000000     0.228960000000     0.575380000000     0.0942427  
C185     C      0.521330000000     0.336610000000     0.548330000000    -0.0120473  
C186     C      0.517040000000     0.268690000000     0.513460000000    -0.0399449  
C187     C      0.564750000000     0.349150000000     0.026720000000    -0.00980697 
C188     C      0.561150000000     0.277970000000     0.990970000000     0.0932288  
C189     C      0.371190000000     0.485700000000     0.947650000000    -0.0122784  
C190     C      0.299590000000     0.479970000000     0.985810000000    -0.0418584  
C191     C      0.386650000000     0.523430000000     0.471820000000    -0.0102601  
C192     C      0.312640000000     0.518530000000     0.510430000000     0.0937303  
H1       H      0.268750000000     0.003090000000     0.187580000000     0.0397563  
H2       H      0.197900000000     0.963720000000     0.197100000000     0.0485322  
H3       H      0.316770000000     0.003070000000     0.247480000000     0.0204827  
H4       H      0.282330000000     0.962730000000     0.300250000000     0.0596462  
H5       H      0.220560000000     0.037680000000     0.182790000000     0.0493831  
H6       H      0.180130000000     0.999320000000     0.234640000000     0.0411666  
H7       H      0.234360000000     0.997990000000     0.301920000000     0.0474243  
H8       H      0.333830000000     0.065650000000     0.283200000000     0.101466   
H9       H      0.286760000000     0.057590000000     0.313500000000     0.100921   
H10      H      0.039880000000     0.764480000000     0.244630000000     0.0401252  
H11      H      0.003870000000     0.793940000000     0.185840000000     0.0486772  
H12      H      0.027260000000     0.813490000000     0.301130000000     0.0219122  
H13      H      0.986900000000     0.878550000000     0.282460000000     0.0603337  
H14      H      0.082790000000     0.776360000000     0.209090000000     0.0483736  
H15      H      0.040940000000     0.839100000000     0.187170000000     0.0408331  
H16      H      0.030930000000     0.891570000000     0.248020000000     0.0476842  
H17      H      0.088960000000     0.846700000000     0.335020000000     0.10494    
H18      H      0.085340000000     0.891130000000     0.304410000000     0.101622   
H19      H      0.888980000000     0.005760000000     0.201870000000     0.0415692  
H20      H      0.848810000000     0.963790000000     0.152970000000     0.0490351  
H21      H      0.835510000000     0.003120000000     0.273550000000     0.0205825  
H22      H      0.774320000000     0.954590000000     0.260210000000     0.0586279  
H23      H      0.864170000000     0.039510000000     0.165240000000     0.0486651  
H24      H      0.797670000000     0.994500000000     0.158930000000     0.0398983  
H25      H      0.752400000000     0.986760000000     0.220930000000     0.0481562  
H26      H      0.790110000000     0.054680000000     0.298580000000     0.103608   
H27      H      0.756010000000     0.059420000000     0.256690000000     0.0982503  
H28      H      0.041270000000     0.113860000000     0.233630000000     0.0391212  
H29      H      0.087020000000     0.135270000000     0.290390000000     0.0478442  
H30      H      0.042190000000     0.173150000000     0.179090000000     0.0195971  
H31      H      0.091960000000     0.230100000000     0.200010000000     0.0588677  
H32      H      0.005760000000     0.121580000000     0.275380000000     0.0478904  
H33      H      0.052330000000     0.181560000000     0.296430000000     0.0411551  
H34      H      0.056840000000     0.240510000000     0.241640000000     0.0475907  
H35      H      0.981050000000     0.215570000000     0.159460000000     0.101677   
H36      H      0.984900000000     0.247550000000     0.200840000000     0.0990678  
H37      H      0.812210000000     0.790580000000     0.370440000000     0.0410877  
H38      H      0.833170000000     0.719110000000     0.391300000000     0.0481218  
H39      H      0.730200000000     0.791530000000     0.338350000000     0.0214146  
H40      H      0.697520000000     0.721390000000     0.342350000000     0.0607107  
H41      H      0.858890000000     0.771160000000     0.342190000000     0.0490985  
H42      H      0.826420000000     0.700040000000     0.342260000000     0.0400987  
H43      H      0.741880000000     0.699870000000     0.312540000000     0.0476665  
H44      H      0.712220000000     0.803820000000     0.272900000000     0.104076   
H45      H      0.730050000000     0.753620000000     0.258460000000     0.0989189  
H46      H      0.732330000000     0.770630000000     0.090980000000     0.0381289  
H47      H      0.794310000000     0.822340000000     0.091170000000     0.0492045  
H48      H      0.760780000000     0.697640000000     0.123170000000     0.0177339  
H49      H      0.838350000000     0.707000000000     0.146470000000     0.0590452  
H50      H      0.750380000000     0.782170000000     0.042150000000     0.0486229  
H51      H      0.829950000000     0.787700000000     0.063330000000     0.0419567  
H52      H      0.858700000000     0.717720000000     0.098040000000     0.049664   
H53      H      0.773510000000     0.634090000000     0.092280000000     0.103984   
H54      H      0.822400000000     0.652140000000     0.068210000000     0.102849   
H55      H      0.754130000000     0.197770000000     0.367420000000     0.0397005  
H56      H      0.713220000000     0.264700000000     0.358150000000     0.0488509  
H57      H      0.833640000000     0.211200000000     0.395710000000     0.0207325  
H58      H      0.847810000000     0.286510000000     0.405530000000     0.0582937  
H59      H      0.743400000000     0.207390000000     0.316490000000     0.0473593  
H60      H      0.756210000000     0.283270000000     0.324940000000     0.0394156  
H61      H      0.839250000000     0.296990000000     0.354310000000     0.0455645  
H62      H      0.902170000000     0.196490000000     0.361730000000     0.102412   
H63      H      0.902220000000     0.246630000000     0.339900000000     0.0998576  
H64      H      0.733080000000     0.222590000000     0.124410000000     0.0375967  
H65      H      0.758680000000     0.209290000000     0.057620000000     0.0469996  
H66      H      0.763840000000     0.293280000000     0.149270000000     0.0191656  
H67      H      0.808050000000     0.328880000000     0.098900000000     0.0603997  
H68      H      0.770270000000     0.177690000000     0.123260000000     0.0482184  
H69      H      0.817520000000     0.211410000000     0.073040000000     0.0415131  
H70      H      0.848560000000     0.286350000000     0.097790000000     0.0482176  
H71      H      0.817370000000     0.300900000000     0.200560000000     0.0996158  
H72      H      0.863660000000     0.293310000000     0.169280000000     0.101477   
H73      H      0.675770000000     0.486790000000     0.960860000000     0.0423762  
H74      H      0.687930000000     0.533930000000     0.405740000000     0.0477136  
H75      H      0.759110000000     0.490630000000     0.009770000000     0.0229796  
H76      H      0.807720000000     0.541770000000     0.978440000000     0.0595424  
H77      H      0.684300000000     0.456150000000     0.417800000000     0.0476321  
H78      H      0.738800000000     0.506000000000     0.392040000000     0.0379271  
H79      H      0.809520000000     0.511980000000     0.434100000000     0.0473165  
H80      H      0.815000000000     0.440960000000     0.016500000000     0.107749   
H81      H      0.825850000000     0.437860000000     0.466510000000     0.0968165  
H82      H      0.325150000000     0.714740000000     0.351960000000     0.0391935  
H83      H      0.339660000000     0.790410000000     0.343050000000     0.0488193  
H84      H      0.243920000000     0.702910000000     0.375500000000     0.020104   
H85      H      0.202660000000     0.769540000000     0.384050000000     0.0596339  
H86      H      0.368270000000     0.732080000000     0.385670000000     0.0501738  
H87      H      0.328950000000     0.799810000000     0.393920000000     0.0427031  
H88      H      0.244510000000     0.786880000000     0.419110000000     0.0479329  
H89      H      0.226580000000     0.673380000000     0.437770000000     0.0990028  
H90      H      0.226240000000     0.723310000000     0.459300000000     0.100933   
H91      H      0.257490000000     0.781050000000     0.097050000000     0.0398364  
H92      H      0.299450000000     0.826400000000     0.142300000000     0.048253   
H93      H      0.238130000000     0.708930000000     0.130990000000     0.0206808  
H94      H      0.265970000000     0.708550000000     0.198080000000     0.0596234  
H95      H      0.314650000000     0.789450000000     0.080210000000     0.0477346  
H96      H      0.344490000000     0.788060000000     0.147030000000     0.0400165  
H97      H      0.323910000000     0.715480000000     0.182360000000     0.0470862  
H98      H      0.267650000000     0.643020000000     0.114230000000     0.103872   
H99      H      0.319470000000     0.652010000000     0.138760000000     0.101374   
H100     H      0.534610000000     0.692170000000     0.459450000000     0.0441266  
H101     H      0.497580000000     0.748520000000     0.496100000000     0.0494854  
H102     H      0.540260000000     0.619820000000     0.008670000000     0.0228344  
H103     H      0.502600000000     0.637920000000     0.069160000000     0.0583634  
H104     H      0.575070000000     0.732720000000     0.470950000000     0.0500563  
H105     H      0.540150000000     0.744620000000     0.534170000000     0.0384834  
H106     H      0.541760000000     0.680540000000     0.577890000000     0.0460793  
H107     H      0.604440000000     0.591940000000     0.038180000000     0.103773   
H108     H      0.614670000000     0.636450000000     0.066910000000     0.0962537  
H109     H      0.266120000000     0.220110000000     0.396060000000     0.039954   
H110     H      0.247960000000     0.295760000000     0.401370000000     0.0483368  
H111     H      0.348460000000     0.209490000000     0.372210000000     0.0211404  
H112     H      0.386690000000     0.277540000000     0.363910000000     0.0608973  
H113     H      0.222490000000     0.235180000000     0.361680000000     0.0486202  
H114     H      0.260340000000     0.303580000000     0.350460000000     0.0405448  
H115     H      0.345110000000     0.293770000000     0.327870000000     0.047753   
H116     H      0.368000000000     0.181220000000     0.310920000000     0.102873   
H117     H      0.362930000000     0.230450000000     0.287740000000     0.101177   
H118     H      0.243860000000     0.298220000000     0.113360000000     0.0410213  
H119     H      0.286620000000     0.290130000000     0.174490000000     0.047666   
H120     H      0.241390000000     0.228490000000     0.077940000000     0.0214691  
H121     H      0.284600000000     0.172890000000     0.111920000000     0.0604706  
H122     H      0.294480000000     0.330000000000     0.111770000000     0.0496058  
H123     H      0.337680000000     0.276730000000     0.148550000000     0.0392237  
H124     H      0.336160000000     0.203560000000     0.108880000000     0.0464863  
H125     H      0.274280000000     0.218270000000     0.015440000000     0.103687   
H126     H      0.326740000000     0.203390000000     0.036350000000     0.101465   
H127     H      0.555370000000     0.372050000000     0.503210000000     0.0429885  
H128     H      0.502100000000     0.365500000000     0.056340000000     0.0473741  
H129     H      0.551030000000     0.287900000000     0.460840000000     0.0242405  
H130     H      0.494710000000     0.247770000000     0.495690000000     0.0594412  
H131     H      0.587480000000     0.366040000000     0.047570000000     0.0465646  
H132     H      0.531410000000     0.319980000000     0.075800000000     0.0371782  
H133     H      0.526000000000     0.251260000000     0.040820000000     0.0463852  
H134     H      0.604140000000     0.235670000000     0.462270000000     0.105813   
H135     H      0.608460000000     0.233960000000     0.013080000000     0.0964695  
H136     H      0.410470000000     0.511910000000     0.995010000000     0.0424033  
H137     H      0.401700000000     0.468240000000     0.937360000000     0.0480081  
H138     H      0.327600000000     0.506450000000     0.038350000000     0.0222147  
H139     H      0.278070000000     0.458310000000     0.003580000000     0.0616001  
H140     H      0.406390000000     0.544900000000     0.452420000000     0.0481197  
H141     H      0.352300000000     0.497730000000     0.421540000000     0.0385827  
H142     H      0.278570000000     0.490810000000     0.460430000000     0.0472608  
H143     H      0.272610000000     0.557100000000     0.545820000000     0.104645   
H144     H      0.260220000000     0.561150000000     0.495860000000     0.0962252  
H145     H      0.268750000000     0.003090000000     0.687580000000     0.0397093  
H146     H      0.197900000000     0.963720000000     0.697100000000     0.0484936  
H147     H      0.316770000000     0.003070000000     0.747480000000     0.0204591  
H148     H      0.282330000000     0.962730000000     0.800250000000     0.0596002  
H149     H      0.220560000000     0.037680000000     0.682790000000     0.049338   
H150     H      0.180130000000     0.999320000000     0.734640000000     0.0411498  
H151     H      0.234350000000     0.997990000000     0.801920000000     0.047379   
H152     H      0.333830000000     0.065650000000     0.783200000000     0.101437   
H153     H      0.286760000000     0.057590000000     0.813500000000     0.100884   
H154     H      0.039880000000     0.764480000000     0.744630000000     0.0401017  
H155     H      0.003870000000     0.793940000000     0.685840000000     0.0486358  
H156     H      0.027260000000     0.813490000000     0.801140000000     0.0218918  
H157     H      0.986900000000     0.878550000000     0.782460000000     0.0603047  
H158     H      0.082790000000     0.776360000000     0.709090000000     0.0483388  
H159     H      0.040940000000     0.839100000000     0.687170000000     0.0407929  
H160     H      0.030930000000     0.891570000000     0.748020000000     0.0476619  
H161     H      0.088960000000     0.846700000000     0.835020000000     0.104869   
H162     H      0.085340000000     0.891130000000     0.804410000000     0.101637   
H163     H      0.888990000000     0.005760000000     0.701870000000     0.0415414  
H164     H      0.848810000000     0.963800000000     0.652970000000     0.0489792  
H165     H      0.835510000000     0.003120000000     0.773550000000     0.0205555  
H166     H      0.774320000000     0.954590000000     0.760210000000     0.0586247  
H167     H      0.864170000000     0.039510000000     0.665240000000     0.0486162  
H168     H      0.797670000000     0.994510000000     0.658930000000     0.0398395  
H169     H      0.752400000000     0.986760000000     0.720930000000     0.0481538  
H170     H      0.790110000000     0.054680000000     0.798580000000     0.103571   
H171     H      0.756010000000     0.059420000000     0.756690000000     0.0982271  
H172     H      0.041270000000     0.113860000000     0.733630000000     0.0391075  
H173     H      0.087020000000     0.135270000000     0.790390000000     0.0477827  
H174     H      0.042190000000     0.173140000000     0.679090000000     0.0195661  
H175     H      0.091960000000     0.230100000000     0.700010000000     0.0588375  
H176     H      0.005760000000     0.121580000000     0.775380000000     0.0478742  
H177     H      0.052320000000     0.181560000000     0.796430000000     0.0410886  
H178     H      0.056840000000     0.240510000000     0.741640000000     0.0475685  
H179     H      0.981050000000     0.215570000000     0.659460000000     0.101631   
H180     H      0.984900000000     0.247550000000     0.700830000000     0.0990815  
H181     H      0.812210000000     0.790580000000     0.870440000000     0.0410182  
H182     H      0.833170000000     0.719110000000     0.891300000000     0.0480641  
H183     H      0.730200000000     0.791530000000     0.838350000000     0.0213692  
H184     H      0.697520000000     0.721390000000     0.842350000000     0.0607162  
H185     H      0.858890000000     0.771160000000     0.842190000000     0.049054   
H186     H      0.826420000000     0.700040000000     0.842260000000     0.0400852  
H187     H      0.741880000000     0.699870000000     0.812540000000     0.0476799  
H188     H      0.712210000000     0.803820000000     0.772900000000     0.10409    
H189     H      0.730050000000     0.753620000000     0.758460000000     0.0988857  
H190     H      0.732340000000     0.770630000000     0.590980000000     0.0380935  
H191     H      0.794310000000     0.822340000000     0.591170000000     0.0491439  
H192     H      0.760780000000     0.697640000000     0.623170000000     0.0177241  
H193     H      0.838350000000     0.707000000000     0.646470000000     0.0590322  
H194     H      0.750380000000     0.782170000000     0.542150000000     0.0485155  
H195     H      0.829950000000     0.787700000000     0.563330000000     0.0418565  
H196     H      0.858700000000     0.717720000000     0.598040000000     0.0495905  
H197     H      0.773510000000     0.634090000000     0.592280000000     0.103925   
H198     H      0.822400000000     0.652140000000     0.568210000000     0.102736   
H199     H      0.754130000000     0.197770000000     0.867420000000     0.0396191  
H200     H      0.713220000000     0.264700000000     0.858150000000     0.0488467  
H201     H      0.833640000000     0.211200000000     0.895710000000     0.0206581  
H202     H      0.847810000000     0.286510000000     0.905530000000     0.0582232  
H203     H      0.743400000000     0.207390000000     0.816490000000     0.0473114  
H204     H      0.756210000000     0.283270000000     0.824940000000     0.0394235  
H205     H      0.839250000000     0.296990000000     0.854300000000     0.0455303  
H206     H      0.902170000000     0.196490000000     0.861740000000     0.10236    
H207     H      0.902220000000     0.246630000000     0.839900000000     0.0998377  
H208     H      0.733080000000     0.222590000000     0.624400000000     0.0375702  
H209     H      0.758680000000     0.209290000000     0.557620000000     0.0468987  
H210     H      0.763830000000     0.293280000000     0.649270000000     0.0191599  
H211     H      0.808050000000     0.328880000000     0.598900000000     0.0603332  
H212     H      0.770270000000     0.177690000000     0.623260000000     0.0481686  
H213     H      0.817520000000     0.211410000000     0.573040000000     0.0414143  
H214     H      0.848560000000     0.286350000000     0.597790000000     0.0481298  
H215     H      0.817370000000     0.300900000000     0.700550000000     0.0996584  
H216     H      0.863660000000     0.293310000000     0.669280000000     0.101454   
H217     H      0.675770000000     0.486790000000     0.460860000000     0.0424974  
H218     H      0.687930000000     0.533930000000     0.905740000000     0.0476755  
H219     H      0.759110000000     0.490630000000     0.509770000000     0.0223374  
H220     H      0.807720000000     0.541770000000     0.478440000000     0.0597297  
H221     H      0.684300000000     0.456150000000     0.917800000000     0.0476195  
H222     H      0.738800000000     0.506000000000     0.892040000000     0.0379213  
H223     H      0.809520000000     0.511980000000     0.934100000000     0.0472646  
H224     H      0.815000000000     0.440960000000     0.516500000000     0.10724    
H225     H      0.825850000000     0.437860000000     0.966510000000     0.0967764  
H226     H      0.325150000000     0.714740000000     0.851960000000     0.0391833  
H227     H      0.339660000000     0.790410000000     0.843040000000     0.0487768  
H228     H      0.243920000000     0.702900000000     0.875500000000     0.0200836  
H229     H      0.202660000000     0.769540000000     0.884050000000     0.059583   
H230     H      0.368270000000     0.732080000000     0.885680000000     0.0501437  
H231     H      0.328950000000     0.799810000000     0.893920000000     0.0426099  
H232     H      0.244510000000     0.786880000000     0.919110000000     0.0478384  
H233     H      0.226580000000     0.673380000000     0.937770000000     0.0989233  
H234     H      0.226240000000     0.723310000000     0.959300000000     0.100808   
H235     H      0.257490000000     0.781050000000     0.597050000000     0.0397225  
H236     H      0.299450000000     0.826390000000     0.642300000000     0.0482309  
H237     H      0.238130000000     0.708930000000     0.630990000000     0.0206346  
H238     H      0.265970000000     0.708550000000     0.698090000000     0.0595972  
H239     H      0.314650000000     0.789450000000     0.580210000000     0.0476123  
H240     H      0.344490000000     0.788060000000     0.647030000000     0.0400046  
H241     H      0.323910000000     0.715480000000     0.682360000000     0.0470672  
H242     H      0.267650000000     0.643020000000     0.614230000000     0.103825   
H243     H      0.319470000000     0.652010000000     0.638760000000     0.101352   
H244     H      0.534610000000     0.692170000000     0.959450000000     0.0442623  
H245     H      0.497580000000     0.748520000000     0.996100000000     0.0486563  
H246     H      0.540260000000     0.619820000000     0.508670000000     0.02262    
H247     H      0.502600000000     0.637920000000     0.569160000000     0.0583485  
H248     H      0.575070000000     0.732720000000     0.970950000000     0.0502276  
H249     H      0.540150000000     0.744620000000     0.034170000000     0.038299   
H250     H      0.541760000000     0.680540000000     0.077900000000     0.0460648  
H251     H      0.604440000000     0.591940000000     0.538180000000     0.103661   
H252     H      0.614670000000     0.636450000000     0.566910000000     0.0961996  
H253     H      0.266120000000     0.220110000000     0.896060000000     0.0398615  
H254     H      0.247960000000     0.295760000000     0.901370000000     0.0482674  
H255     H      0.348460000000     0.209490000000     0.872210000000     0.0210873  
H256     H      0.386690000000     0.277540000000     0.863910000000     0.0608757  
H257     H      0.222490000000     0.235180000000     0.861680000000     0.0485703  
H258     H      0.260340000000     0.303580000000     0.850460000000     0.0405291  
H259     H      0.345110000000     0.293770000000     0.827870000000     0.0477487  
H260     H      0.368000000000     0.181220000000     0.810910000000     0.102842   
H261     H      0.362940000000     0.230450000000     0.787740000000     0.101166   
H262     H      0.243860000000     0.298220000000     0.613360000000     0.0409595  
H263     H      0.286620000000     0.290130000000     0.674490000000     0.0476506  
H264     H      0.241400000000     0.228490000000     0.577940000000     0.0214001  
H265     H      0.284600000000     0.172890000000     0.611920000000     0.0604181  
H266     H      0.294480000000     0.330010000000     0.611770000000     0.0495466  
H267     H      0.337680000000     0.276740000000     0.648550000000     0.0391997  
H268     H      0.336160000000     0.203560000000     0.608880000000     0.0464401  
H269     H      0.274280000000     0.218270000000     0.515440000000     0.103511   
H270     H      0.326740000000     0.203390000000     0.536350000000     0.10134    
H271     H      0.555370000000     0.372050000000     0.003210000000     0.043194   
H272     H      0.502100000000     0.365500000000     0.556340000000     0.0473412  
H273     H      0.551030000000     0.287900000000     0.960840000000     0.0243638  
H274     H      0.494710000000     0.247770000000     0.995690000000     0.058711   
H275     H      0.587490000000     0.366040000000     0.547570000000     0.0465047  
H276     H      0.531410000000     0.319980000000     0.575800000000     0.0371807  
H277     H      0.526000000000     0.251260000000     0.540820000000     0.0465669  
H278     H      0.604140000000     0.235670000000     0.962270000000     0.105745   
H279     H      0.608460000000     0.233960000000     0.513080000000     0.0960083  
H280     H      0.410480000000     0.511910000000     0.495010000000     0.042591   
H281     H      0.401700000000     0.468240000000     0.437360000000     0.0480483  
H282     H      0.327600000000     0.506450000000     0.538350000000     0.0222961  
H283     H      0.278070000000     0.458310000000     0.503580000000     0.0608286  
H284     H      0.406390000000     0.544900000000     0.952420000000     0.0480608  
H285     H      0.352300000000     0.497730000000     0.921540000000     0.0385811  
H286     H      0.278570000000     0.490810000000     0.960430000000     0.0474244  
H287     H      0.272610000000     0.557100000000     0.045820000000     0.104715   
H288     H      0.260220000000     0.561140000000     0.995860000000     0.0957745  
In1      In     0.364070000000     0.334210000000     0.489280000000     2.41372    
In2      In     0.360820000000     0.671480000000     0.509940000000     2.413      
In3      In     0.722780000000     0.329200000000     0.481470000000     2.40955    
In4      In     0.715600000000     0.663260000000     0.469080000000     2.41696    
In5      In     0.861510000000     0.165620000000     0.234620000000     2.41295    
In6      In     0.853380000000     0.832900000000     0.218670000000     2.40514    
In7      In     0.218110000000     0.832880000000     0.260500000000     2.40897    
In8      In     0.232020000000     0.169610000000     0.241180000000     2.40739    
In9      In     0.364070000000     0.334210000000     0.989280000000     2.41217    
In10     In     0.360820000000     0.671480000000     0.009930000000     2.41467    
In11     In     0.722780000000     0.329200000000     0.981470000000     2.40806    
In12     In     0.715600000000     0.663260000000     0.969080000000     2.41503    
In13     In     0.861510000000     0.165620000000     0.734620000000     2.4131     
In14     In     0.853380000000     0.832900000000     0.718670000000     2.40526    
In15     In     0.218110000000     0.832880000000     0.760500000000     2.40915    
In16     In     0.232020000000     0.169610000000     0.741180000000     2.40738    
N1       N      0.260790000000     0.043720000000     0.235900000000    -0.180647   
N2       N      0.235190000000     0.959960000000     0.251670000000    -0.163792   
N3       N      0.310670000000     0.043930000000     0.294890000000    -0.197173   
N4       N      0.079600000000     0.818120000000     0.258880000000    -0.180885   
N5       N      0.991560000000     0.838650000000     0.231850000000    -0.164135   
N6       N      0.068560000000     0.864840000000     0.316130000000    -0.197421   
N7       N      0.832220000000     0.040570000000     0.222030000000    -0.179828   
N8       N      0.813270000000     0.955220000000     0.207260000000    -0.163959   
N9       N      0.775130000000     0.039270000000     0.274820000000    -0.19699    
N10      N      0.000890000000     0.169170000000     0.229570000000    -0.18091    
N11      N      0.093930000000     0.183790000000     0.246330000000    -0.164604   
N12      N      0.002120000000     0.228030000000     0.181320000000    -0.197064   
N13      N      0.793290000000     0.775450000000     0.312410000000    -0.180317   
N14      N      0.764150000000     0.716300000000     0.369000000000    -0.163668   
N15      N      0.716780000000     0.772170000000     0.280840000000    -0.197191   
N16      N      0.769220000000     0.720670000000     0.065380000000    -0.180092   
N17      N      0.819320000000     0.766890000000     0.121270000000    -0.163631   
N18      N      0.801630000000     0.654430000000     0.092850000000    -0.197449   
N19      N      0.813540000000     0.215160000000     0.336210000000    -0.181628   
N20      N      0.778960000000     0.279470000000     0.383590000000    -0.164671   
N21      N      0.891390000000     0.227880000000     0.363340000000    -0.197208   
N22      N      0.798590000000     0.234690000000     0.148560000000    -0.181153   
N23      N      0.784250000000     0.270530000000     0.074040000000    -0.163669   
N24      N      0.829670000000     0.302990000000     0.172000000000    -0.197331   
N25      N      0.739340000000     0.455020000000     0.460240000000    -0.179243   
N26      N      0.746440000000     0.541710000000     0.943430000000    -0.1637     
N27      N      0.816530000000     0.457140000000     0.989810000000    -0.197589   
N28      N      0.301670000000     0.718330000000     0.410250000000    -0.181334   
N29      N      0.269720000000     0.783740000000     0.361640000000    -0.16377    
N30      N      0.222510000000     0.705890000000     0.433630000000    -0.197015   
N31      N      0.299680000000     0.727140000000     0.103390000000    -0.180716   
N32      N      0.283000000000     0.769480000000     0.174040000000    -0.164153   
N33      N      0.284530000000     0.658770000000     0.136860000000    -0.197292   
N34      N      0.582690000000     0.673770000000     0.502870000000    -0.179788   
N35      N      0.495500000000     0.692350000000     0.031770000000    -0.164294   
N36      N      0.590310000000     0.617390000000     0.053130000000    -0.196701   
N37      N      0.289720000000     0.222910000000     0.337720000000    -0.180558   
N38      N      0.318770000000     0.289830000000     0.384930000000    -0.163604   
N39      N      0.369160000000     0.214020000000     0.313860000000    -0.197293   
N40      N      0.294700000000     0.273690000000     0.076170000000    -0.180585   
N41      N      0.287260000000     0.229100000000     0.146990000000    -0.164405   
N42      N      0.291390000000     0.206000000000     0.039940000000    -0.197274   
N43      N      0.588400000000     0.312910000000     0.008660000000    -0.179319   
N44      N      0.494400000000     0.308090000000     0.523950000000    -0.164215   
N45      N      0.586980000000     0.238360000000     0.988810000000    -0.197401   
N46      N      0.347890000000     0.545100000000     0.490710000000    -0.179742   
N47      N      0.340630000000     0.459230000000     0.971000000000    -0.163359   
N48      N      0.270450000000     0.541530000000     0.519050000000    -0.196845   
N49      N      0.260790000000     0.043720000000     0.735900000000    -0.180655   
N50      N      0.235190000000     0.959960000000     0.751670000000    -0.163853   
N51      N      0.310670000000     0.043930000000     0.794890000000    -0.197181   
N52      N      0.079600000000     0.818120000000     0.758880000000    -0.180928   
N53      N      0.991560000000     0.838650000000     0.731850000000    -0.164144   
N54      N      0.068560000000     0.864850000000     0.816130000000    -0.197438   
N55      N      0.832220000000     0.040570000000     0.722030000000    -0.179846   
N56      N      0.813280000000     0.955220000000     0.707260000000    -0.163975   
N57      N      0.775130000000     0.039270000000     0.774820000000    -0.197001   
N58      N      0.000890000000     0.169170000000     0.729570000000    -0.180914   
N59      N      0.093930000000     0.183790000000     0.746330000000    -0.164629   
N60      N      0.002120000000     0.228030000000     0.681320000000    -0.197111   
N61      N      0.793290000000     0.775460000000     0.812410000000    -0.180399   
N62      N      0.764150000000     0.716300000000     0.869000000000    -0.163626   
N63      N      0.716780000000     0.772180000000     0.780840000000    -0.197212   
N64      N      0.769220000000     0.720670000000     0.565380000000    -0.180137   
N65      N      0.819320000000     0.766890000000     0.621270000000    -0.163617   
N66      N      0.801630000000     0.654430000000     0.592850000000    -0.197445   
N67      N      0.813540000000     0.215160000000     0.836210000000    -0.18165    
N68      N      0.778960000000     0.279470000000     0.883600000000    -0.164691   
N69      N      0.891390000000     0.227880000000     0.863340000000    -0.197232   
N70      N      0.798590000000     0.234690000000     0.648560000000    -0.181211   
N71      N      0.784250000000     0.270530000000     0.574040000000    -0.163719   
N72      N      0.829670000000     0.302990000000     0.672000000000    -0.197391   
N73      N      0.739340000000     0.455020000000     0.960240000000    -0.179187   
N74      N      0.746440000000     0.541710000000     0.443430000000    -0.163713   
N75      N      0.816530000000     0.457140000000     0.489810000000    -0.197283   
N76      N      0.301670000000     0.718330000000     0.910250000000    -0.181373   
N77      N      0.269720000000     0.783730000000     0.861640000000    -0.163771   
N78      N      0.222520000000     0.705890000000     0.933630000000    -0.197038   
N79      N      0.299680000000     0.727140000000     0.603390000000    -0.180789   
N80      N      0.283000000000     0.769480000000     0.674040000000    -0.164155   
N81      N      0.284530000000     0.658770000000     0.636860000000    -0.197294   
N82      N      0.582690000000     0.673770000000     0.002870000000    -0.178932   
N83      N      0.495500000000     0.692350000000     0.531770000000    -0.164107   
N84      N      0.590310000000     0.617390000000     0.553130000000    -0.196726   
N85      N      0.289720000000     0.222910000000     0.837720000000    -0.18057    
N86      N      0.318770000000     0.289830000000     0.884930000000    -0.16357    
N87      N      0.369160000000     0.214020000000     0.813860000000    -0.197302   
N88      N      0.294700000000     0.273690000000     0.576170000000    -0.180634   
N89      N      0.287260000000     0.229100000000     0.646990000000    -0.164412   
N90      N      0.291390000000     0.206000000000     0.539940000000    -0.197284   
N91      N      0.588400000000     0.312910000000     0.508660000000    -0.179577   
N92      N      0.494400000000     0.308090000000     0.023950000000    -0.164442   
N93      N      0.586980000000     0.238360000000     0.488810000000    -0.197114   
N94      N      0.347890000000     0.545100000000     0.990710000000    -0.180003   
N95      N      0.340630000000     0.459230000000     0.471000000000    -0.163474   
N96      N      0.270450000000     0.541530000000     0.019050000000    -0.196596   
O1       O      0.330810000000     0.331930000000     0.049550000000    -0.499638   
O2       O      0.329380000000     0.276570000000     0.015590000000    -0.514084   
O3       O      0.376170000000     0.309620000000     0.427580000000    -0.495812   
O4       O      0.322640000000     0.394300000000     0.497330000000    -0.499324   
O5       O      0.427850000000     0.292910000000     0.990620000000    -0.502651   
O6       O      0.383270000000     0.398610000000     0.963720000000    -0.504525   
O7       O      0.307580000000     0.316730000000     0.446390000000    -0.506922   
O8       O      0.430330000000     0.350460000000     0.521900000000    -0.504641   
O9       O      0.363870000000     0.700000000000     0.448600000000    -0.500799   
O10      O      0.298630000000     0.688650000000     0.472380000000    -0.52012    
O11      O      0.325040000000     0.668920000000     0.068940000000    -0.506575   
O12      O      0.325650000000     0.608040000000     0.018940000000    -0.504706   
O13      O      0.426380000000     0.709490000000     0.503300000000    -0.497236   
O14      O      0.382640000000     0.609870000000     0.481330000000    -0.507623   
O15      O      0.337440000000     0.729070000000     0.044320000000    -0.511389   
O16      O      0.428340000000     0.655610000000     0.040620000000    -0.507478   
O17      O      0.741740000000     0.270480000000     0.017070000000    -0.509437   
O18      O      0.764020000000     0.329780000000     0.038430000000    -0.493655   
O19      O      0.717610000000     0.300240000000     0.420640000000    -0.498421   
O20      O      0.655010000000     0.294210000000     0.477130000000    -0.503915   
O21      O      0.758300000000     0.392170000000     0.991310000000    -0.50097    
O22      O      0.657590000000     0.347840000000     0.013580000000    -0.508558   
O23      O      0.783880000000     0.309660000000     0.444530000000    -0.511737   
O24      O      0.703910000000     0.390750000000     0.450180000000    -0.50784    
O25      O      0.751120000000     0.661610000000     0.028670000000    -0.503902   
O26      O      0.735610000000     0.721370000000     0.004070000000    -0.509283   
O27      O      0.772900000000     0.690420000000     0.431740000000    -0.509155   
O28      O      0.760510000000     0.604730000000     0.474370000000    -0.498991   
O29      O      0.652670000000     0.639470000000     0.001280000000    -0.514335   
O30      O      0.700630000000     0.600720000000     0.938990000000    -0.505773   
O31      O      0.705870000000     0.690600000000     0.407500000000    -0.49732    
O32      O      0.646100000000     0.695960000000     0.468440000000    -0.501412   
O33      O      0.816830000000     0.172240000000     0.180100000000    -0.508474   
O34      O      0.844890000000     0.228010000000     0.203720000000    -0.512058   
O35      O      0.871790000000     0.195060000000     0.294660000000    -0.51621    
O36      O      0.829930000000     0.103670000000     0.255930000000    -0.509523   
O37      O      0.928480000000     0.190300000000     0.209080000000    -0.512223   
O38      O      0.863550000000     0.103730000000     0.201400000000    -0.505748   
O39      O      0.803930000000     0.184590000000     0.275640000000    -0.509081   
O40      O      0.932590000000     0.145500000000     0.255010000000    -0.509093   
O41      O      0.847500000000     0.771450000000     0.184260000000    -0.499833   
O42      O      0.822880000000     0.827760000000     0.157460000000    -0.502138   
O43      O      0.855570000000     0.800580000000     0.278350000000    -0.509331   
O44      O      0.918140000000     0.857120000000     0.248500000000    -0.503269   
O45      O      0.853530000000     0.896780000000     0.187720000000    -0.499385   
O46      O      0.926080000000     0.814190000000     0.201780000000    -0.502445   
O47      O      0.790970000000     0.807160000000     0.250940000000    -0.508932   
O48      O      0.812980000000     0.890590000000     0.238660000000    -0.501573   
O49      O      0.277680000000     0.815640000000     0.301250000000    -0.500088   
O50      O      0.210340000000     0.802530000000     0.320600000000    -0.504687   
O51      O      0.240460000000     0.772190000000     0.230420000000    -0.502486   
O52      O      0.152090000000     0.804650000000     0.235570000000    -0.504328   
O53      O      0.248520000000     0.895410000000     0.281310000000    -0.501771   
O54      O      0.146950000000     0.846220000000     0.283340000000    -0.51104    
O55      O      0.258800000000     0.830440000000     0.203840000000    -0.505047   
O56      O      0.206840000000     0.896330000000     0.230230000000    -0.504461   
O57      O      0.258470000000     0.228430000000     0.209500000000    -0.502821   
O58      O      0.259530000000     0.170410000000     0.179020000000    -0.503552   
O59      O      0.293820000000     0.188830000000     0.278000000000    -0.505958   
O60      O      0.161850000000     0.152810000000     0.265340000000    -0.505318   
O61      O      0.225150000000     0.104470000000     0.214000000000    -0.502128   
O62      O      0.164790000000     0.200330000000     0.221390000000    -0.50605    
O63      O      0.228070000000     0.201720000000     0.300270000000    -0.50973    
O64      O      0.267580000000     0.109920000000     0.263960000000    -0.510017   
O65      O      0.330810000000     0.331930000000     0.549550000000    -0.500076   
O66      O      0.329380000000     0.276570000000     0.515590000000    -0.514616   
O67      O      0.376180000000     0.309620000000     0.927580000000    -0.495564   
O68      O      0.322640000000     0.394300000000     0.997330000000    -0.49947    
O69      O      0.427850000000     0.292910000000     0.490620000000    -0.502071   
O70      O      0.383270000000     0.398610000000     0.463720000000    -0.504563   
O71      O      0.307580000000     0.316730000000     0.946390000000    -0.506875   
O72      O      0.430330000000     0.350460000000     0.021900000000    -0.504382   
O73      O      0.363870000000     0.700000000000     0.948600000000    -0.501374   
O74      O      0.298630000000     0.688650000000     0.972380000000    -0.520693   
O75      O      0.325030000000     0.668930000000     0.568940000000    -0.506691   
O76      O      0.325650000000     0.608040000000     0.518940000000    -0.505244   
O77      O      0.426380000000     0.709480000000     0.003300000000    -0.497271   
O78      O      0.382640000000     0.609870000000     0.981330000000    -0.507964   
O79      O      0.337440000000     0.729070000000     0.544320000000    -0.511524   
O80      O      0.428340000000     0.655610000000     0.540620000000    -0.507451   
O81      O      0.741740000000     0.270480000000     0.517070000000    -0.509952   
O82      O      0.764020000000     0.329780000000     0.538440000000    -0.494016   
O83      O      0.717610000000     0.300240000000     0.920640000000    -0.498307   
O84      O      0.655010000000     0.294210000000     0.977130000000    -0.504439   
O85      O      0.758300000000     0.392170000000     0.491310000000    -0.500838   
O86      O      0.657590000000     0.347840000000     0.513580000000    -0.508832   
O87      O      0.783890000000     0.309660000000     0.944530000000    -0.511581   
O88      O      0.703910000000     0.390750000000     0.950180000000    -0.507798   
O89      O      0.751120000000     0.661610000000     0.528670000000    -0.504371   
O90      O      0.735610000000     0.721370000000     0.504070000000    -0.509857   
O91      O      0.772910000000     0.690420000000     0.931740000000    -0.508953   
O92      O      0.760520000000     0.604730000000     0.974370000000    -0.498854   
O93      O      0.652670000000     0.639470000000     0.501280000000    -0.515489   
O94      O      0.700640000000     0.600720000000     0.438990000000    -0.506016   
O95      O      0.705870000000     0.690600000000     0.907500000000    -0.497159   
O96      O      0.646100000000     0.695960000000     0.968440000000    -0.501058   
O97      O      0.816830000000     0.172240000000     0.680110000000    -0.508602   
O98      O      0.844890000000     0.228010000000     0.703720000000    -0.512007   
O99      O      0.871790000000     0.195060000000     0.794660000000    -0.516235   
O100     O      0.829930000000     0.103670000000     0.755930000000    -0.509473   
O101     O      0.928480000000     0.190300000000     0.709080000000    -0.512258   
O102     O      0.863550000000     0.103730000000     0.701400000000    -0.505842   
O103     O      0.803930000000     0.184590000000     0.775640000000    -0.509097   
O104     O      0.932590000000     0.145500000000     0.755010000000    -0.509125   
O105     O      0.847500000000     0.771450000000     0.684260000000    -0.499814   
O106     O      0.822880000000     0.827760000000     0.657460000000    -0.502262   
O107     O      0.855570000000     0.800580000000     0.778350000000    -0.509352   
O108     O      0.918140000000     0.857120000000     0.748500000000    -0.503278   
O109     O      0.853530000000     0.896780000000     0.687720000000    -0.49942    
O110     O      0.926070000000     0.814190000000     0.701780000000    -0.502533   
O111     O      0.790970000000     0.807160000000     0.750940000000    -0.508877   
O112     O      0.812980000000     0.890590000000     0.738660000000    -0.501615   
O113     O      0.277680000000     0.815640000000     0.801250000000    -0.500117   
O114     O      0.210340000000     0.802530000000     0.820600000000    -0.50471    
O115     O      0.240460000000     0.772190000000     0.730420000000    -0.50251    
O116     O      0.152090000000     0.804650000000     0.735580000000    -0.504517   
O117     O      0.248520000000     0.895410000000     0.781310000000    -0.501799   
O118     O      0.146950000000     0.846220000000     0.783340000000    -0.511109   
O119     O      0.258800000000     0.830440000000     0.703840000000    -0.505091   
O120     O      0.206840000000     0.896330000000     0.730240000000    -0.504731   
O121     O      0.258470000000     0.228430000000     0.709500000000    -0.502828   
O122     O      0.259530000000     0.170410000000     0.679020000000    -0.503575   
O123     O      0.293820000000     0.188830000000     0.778000000000    -0.505965   
O124     O      0.161850000000     0.152810000000     0.765340000000    -0.505339   
O125     O      0.225150000000     0.104470000000     0.714000000000    -0.502149   
O126     O      0.164790000000     0.200330000000     0.721390000000    -0.50607    
O127     O      0.228070000000     0.201720000000     0.800270000000    -0.50975    
O128     O      0.267580000000     0.109920000000     0.763960000000    -0.510031   


