data_structure

_audit_creation_method RASPA-1.0
_audit_creation_date 2023-5-22
_audit_author_name 'Poobodin Mano'

_cell_length_a    48.6973
_cell_length_b    49.8381
_cell_length_c    50.6412
_cell_angle_alpha 90
_cell_angle_beta  90
_cell_angle_gamma 90
_cell_volume      122905

_symmetry_cell_setting          triclinic
_symmetry_space_group_name_Hall 'P 1'
_symmetry_space_group_name_H-M  'P 1'
_symmetry_Int_Tables_number     1

_symmetry_equiv_pos_as_xyz 'x,y,z'

loop_
_atom_site_label
_atom_site_type_symbol
_atom_site_fract_x
_atom_site_fract_y
_atom_site_fract_z
_atom_site_charge
C1       C      0.470880000000     0.215990000000     0.457140000000     0.40871    
C2       C      0.471470000000     0.148380000000     0.399110000000     0.400287   
C3       C      0.408450000000     0.150520000000     0.458200000000     0.414375   
C4       C      0.411300000000     0.215280000000     0.395200000000     0.404774   
C5       C      0.041240000000     0.269140000000     0.021400000000     0.405751   
C6       C      0.098830000000     0.269930000000     0.081080000000     0.406062   
C7       C      0.100020000000     0.338460000000     0.020170000000     0.406109   
C8       C      0.040430000000     0.340960000000     0.077930000000     0.40496    
C9       C      0.162760000000     0.390230000000     0.448750000000     0.405576   
C10      C      0.219040000000     0.454890000000     0.459190000000     0.40873    
C11      C      0.220620000000     0.401420000000     0.385040000000     0.406292   
C12      C      0.161710000000     0.464880000000     0.394140000000     0.403131   
C13      C      0.344090000000     0.079470000000     0.008980000000     0.406222   
C14      C      0.284640000000     0.022440000000     0.013720000000     0.405084   
C15      C      0.344230000000     0.026600000000     0.082860000000     0.403884   
C16      C      0.284940000000     0.086370000000     0.077580000000     0.405424   
C17      C      0.164400000000     0.153040000000     0.208150000000     0.402523   
C18      C      0.167820000000     0.214140000000     0.145750000000     0.410053   
C19      C      0.231250000000     0.213710000000     0.206430000000     0.404668   
C20      C      0.230790000000     0.147810000000     0.149170000000     0.412492   
C21      C      0.361410000000     0.284060000000     0.328060000000     0.403565   
C22      C      0.287130000000     0.279700000000     0.272610000000     0.408172   
C23      C      0.292860000000     0.337860000000     0.334590000000     0.407188   
C24      C      0.351550000000     0.339770000000     0.263160000000     0.406147   
C25      C      0.415300000000     0.463370000000     0.136470000000     0.406866   
C26      C      0.417670000000     0.406820000000     0.208220000000     0.408163   
C27      C      0.476030000000     0.400020000000     0.143940000000     0.405035   
C28      C      0.474110000000     0.472030000000     0.200800000000     0.402855   
C29      C      0.036900000000     0.094500000000     0.330240000000     0.402539   
C30      C      0.094970000000     0.098010000000     0.272630000000     0.404093   
C31      C      0.096770000000     0.024380000000     0.329060000000     0.406916   
C32      C      0.039110000000     0.026110000000     0.269730000000     0.399535   
C33      C      0.015150000000     0.500780000000     0.206930000000    -0.0107754  
C34      C      0.476920000000     0.001220000000     0.240220000000    -0.010831   
C35      C      0.036200000000     0.498260000000     0.229300000000    -0.0110316  
C36      C      0.497800000000     0.998180000000     0.262560000000    -0.0108951  
C37      C      0.392080000000     0.344840000000     0.234110000000    -0.0114617  
C38      C      0.355180000000     0.380140000000     0.234890000000    -0.0108774  
C39      C      0.414010000000     0.366660000000     0.236750000000    -0.0105685  
C40      C      0.377140000000     0.401960000000     0.237340000000    -0.010236   
C41      C      0.123050000000     0.124680000000     0.212790000000    -0.0106035  
C42      C      0.156710000000     0.129620000000     0.250460000000    -0.0112163  
C43      C      0.099300000000     0.126190000000     0.232540000000    -0.010835   
C44      C      0.132700000000     0.131160000000     0.269830000000    -0.0103165  
C45      C      0.265660000000     0.218430000000     0.242010000000    -0.0107282  
C46      C      0.252450000000     0.258120000000     0.213910000000    -0.010793   
C47      C      0.263790000000     0.236010000000     0.266700000000    -0.0104635  
C48      C      0.250820000000     0.275590000000     0.238670000000    -0.0105462  
C49      C      0.384980000000     0.024100000000     0.112010000000    -0.0106429  
C50      C      0.350670000000     0.486460000000     0.111010000000    -0.0108378  
C51      C      0.408410000000     0.003860000000     0.108940000000    -0.0110772  
C52      C      0.374060000000     0.466170000000     0.108030000000    -0.0104514  
C53      C      0.274540000000     0.138800000000     0.125980000000    -0.010095   
C54      C      0.239700000000     0.102160000000     0.132040000000    -0.0105354  
C55      C      0.277390000000     0.131360000000     0.096810000000    -0.01085    
C56      C      0.242410000000     0.094610000000     0.102910000000    -0.0106575  
C57      C      0.120060000000     0.992980000000     0.389430000000    -0.0108877  
C58      C      0.159010000000     0.497190000000     0.357120000000    -0.0113054  
C59      C      0.099550000000     0.992610000000     0.366530000000    -0.0108505  
C60      C      0.138560000000     0.996620000000     0.334190000000    -0.0107234  
C61      C      0.250810000000     0.340980000000     0.361890000000    -0.0108071  
C62      C      0.285340000000     0.378520000000     0.361730000000    -0.0103894  
C63      C      0.227720000000     0.361250000000     0.357110000000    -0.0109564  
C64      C      0.262210000000     0.398730000000     0.357050000000    -0.0103811  
C65      C      0.241640000000     0.015520000000     0.988740000000    -0.0103665  
C66      C      0.280940000000     0.982840000000     0.484490000000    -0.0106913  
C67      C      0.221650000000     0.492060000000     0.991440000000    -0.0105469  
C68      C      0.260660000000     0.459520000000     0.486880000000    -0.0102766  
C69      C      0.019710000000     0.375550000000     0.137280000000    -0.0108916  
C70      C      0.478590000000     0.365570000000     0.108840000000    -0.0111048  
C71      C      0.037990000000     0.375820000000     0.112680000000    -0.0107137  
C72      C      0.496900000000     0.365770000000     0.084290000000    -0.0106916  
C73      C      0.119550000000     0.365460000000     0.457150000000    -0.0108371  
C74      C      0.161240000000     0.356970000000     0.485040000000    -0.0108581  
C75      C      0.102300000000     0.369500000000     0.482100000000    -0.0103144  
C76      C      0.144140000000     0.360890000000     0.010100000000    -0.0106329  
C77      C      0.105600000000     0.247650000000     0.124260000000    -0.0109027  
C78      C      0.134050000000     0.234360000000     0.085000000000    -0.0107952  
C79      C      0.131460000000     0.248500000000     0.141400000000    -0.00996629 
C80      C      0.159950000000     0.234980000000     0.102080000000    -0.0103686  
C81      C      0.016080000000     0.125860000000     0.391360000000    -0.0109453  
C82      C      0.475000000000     0.114810000000     0.363310000000    -0.0107746  
C83      C      0.033880000000     0.127680000000     0.366510000000    -0.0106136  
C84      C      0.492610000000     0.117280000000     0.338440000000    -0.0107226  
C85      C      0.388180000000     0.086860000000     0.985820000000    -0.0105747  
C86      C      0.346630000000     0.113900000000     0.473840000000    -0.0102641  
C87      C      0.404820000000     0.112610000000     0.989470000000    -0.0102166  
C88      C      0.362990000000     0.139850000000     0.477220000000    -0.010468   
C89      C      0.389460000000     0.223100000000     0.351850000000    -0.0114441  
C90      C      0.383990000000     0.256610000000     0.388930000000    -0.0108818  
C91      C      0.394020000000     0.246230000000     0.332520000000    -0.010035   
C92      C      0.388500000000     0.279470000000     0.369220000000    -0.0111731  
C93      C      0.509600000000     0.247890000000     0.461070000000    -0.00997879 
C94      C      0.478400000000     0.239110000000     0.999740000000    -0.00984934 
C95      C      0.034570000000     0.244960000000     0.479190000000    -0.0106694  
C96      C      0.503400000000     0.236200000000     0.017770000000    -0.0106865  
C97      C      0.470880000000     0.215990000000     0.957140000000     0.408723   
C98      C      0.471470000000     0.148380000000     0.899110000000     0.400288   
C99      C      0.408450000000     0.150520000000     0.958200000000     0.414381   
C100     C      0.411300000000     0.215280000000     0.895200000000     0.404772   
C101     C      0.041240000000     0.269140000000     0.521400000000     0.405757   
C102     C      0.098830000000     0.269930000000     0.581080000000     0.406058   
C103     C      0.100020000000     0.338460000000     0.520170000000     0.406401   
C104     C      0.040430000000     0.340960000000     0.577930000000     0.40496    
C105     C      0.162760000000     0.390230000000     0.948750000000     0.40558    
C106     C      0.219040000000     0.454890000000     0.959190000000     0.408738   
C107     C      0.220620000000     0.401420000000     0.885040000000     0.406293   
C108     C      0.161710000000     0.464880000000     0.894140000000     0.403131   
C109     C      0.344090000000     0.079470000000     0.508980000000     0.406139   
C110     C      0.284640000000     0.022440000000     0.513720000000     0.405151   
C111     C      0.344230000000     0.026600000000     0.582860000000     0.403885   
C112     C      0.284940000000     0.086370000000     0.577580000000     0.405425   
C113     C      0.164400000000     0.153040000000     0.708150000000     0.402522   
C114     C      0.167820000000     0.214140000000     0.645750000000     0.410054   
C115     C      0.231250000000     0.213710000000     0.706430000000     0.404668   
C116     C      0.230790000000     0.147810000000     0.649170000000     0.412493   
C117     C      0.361410000000     0.284060000000     0.828060000000     0.403568   
C118     C      0.287130000000     0.279700000000     0.772610000000     0.408171   
C119     C      0.292860000000     0.337860000000     0.834590000000     0.407188   
C120     C      0.351550000000     0.339770000000     0.763160000000     0.406147   
C121     C      0.415300000000     0.463370000000     0.636470000000     0.406928   
C122     C      0.417670000000     0.406820000000     0.708220000000     0.408164   
C123     C      0.476030000000     0.400020000000     0.643940000000     0.405033   
C124     C      0.474110000000     0.472030000000     0.700800000000     0.402851   
C125     C      0.036900000000     0.094500000000     0.830240000000     0.402613   
C126     C      0.094970000000     0.098010000000     0.772630000000     0.403838   
C127     C      0.096770000000     0.024380000000     0.829060000000     0.40691    
C128     C      0.039110000000     0.026110000000     0.769730000000     0.399529   
C129     C      0.015150000000     0.500780000000     0.706930000000    -0.0107761  
C130     C      0.476920000000     0.001220000000     0.740220000000    -0.0108309  
C131     C      0.036200000000     0.498260000000     0.729300000000    -0.0110321  
C132     C      0.497800000000     0.998180000000     0.762560000000    -0.0108962  
C133     C      0.392080000000     0.344840000000     0.734110000000    -0.011462   
C134     C      0.355180000000     0.380140000000     0.734890000000    -0.0108778  
C135     C      0.414010000000     0.366660000000     0.736750000000    -0.0105689  
C136     C      0.377140000000     0.401960000000     0.737340000000    -0.0102363  
C137     C      0.123050000000     0.124680000000     0.712790000000    -0.0105997  
C138     C      0.156710000000     0.129620000000     0.750460000000    -0.0112186  
C139     C      0.099300000000     0.126190000000     0.732540000000    -0.0108469  
C140     C      0.132700000000     0.131160000000     0.769830000000    -0.010324   
C141     C      0.265660000000     0.218430000000     0.742010000000    -0.0107284  
C142     C      0.252450000000     0.258120000000     0.713910000000    -0.0107934  
C143     C      0.263790000000     0.236010000000     0.766700000000    -0.0104637  
C144     C      0.250820000000     0.275590000000     0.738670000000    -0.0105462  
C145     C      0.384980000000     0.024100000000     0.612010000000    -0.0106409  
C146     C      0.350670000000     0.486460000000     0.611000000000    -0.0107843  
C147     C      0.408410000000     0.003860000000     0.608940000000    -0.0110796  
C148     C      0.374060000000     0.466170000000     0.608030000000    -0.0104705  
C149     C      0.274540000000     0.138800000000     0.625980000000    -0.0100942  
C150     C      0.239700000000     0.102160000000     0.632040000000    -0.0105348  
C151     C      0.277390000000     0.131360000000     0.596810000000    -0.0108513  
C152     C      0.242410000000     0.094610000000     0.602910000000    -0.0106584  
C153     C      0.120060000000     0.992980000000     0.889430000000    -0.0108883  
C154     C      0.159010000000     0.497190000000     0.857120000000    -0.0113056  
C155     C      0.099550000000     0.992610000000     0.866530000000    -0.0108508  
C156     C      0.138560000000     0.996620000000     0.834190000000    -0.0107238  
C157     C      0.250810000000     0.340980000000     0.861890000000    -0.0108077  
C158     C      0.285340000000     0.378520000000     0.861730000000    -0.01039    
C159     C      0.227720000000     0.361250000000     0.857110000000    -0.010956   
C160     C      0.262210000000     0.398730000000     0.857050000000    -0.0103807  
C161     C      0.241640000000     0.015520000000     0.488740000000    -0.0104343  
C162     C      0.280940000000     0.982840000000     0.984490000000    -0.0107157  
C163     C      0.221650000000     0.492060000000     0.491440000000    -0.0106136  
C164     C      0.260660000000     0.459520000000     0.986880000000    -0.0101832  
C165     C      0.019710000000     0.375550000000     0.637280000000    -0.010858   
C166     C      0.478590000000     0.365570000000     0.608840000000    -0.0111018  
C167     C      0.037990000000     0.375820000000     0.612690000000    -0.0107852  
C168     C      0.496900000000     0.365770000000     0.584290000000    -0.0106947  
C169     C      0.119550000000     0.365460000000     0.957150000000    -0.0108403  
C170     C      0.161240000000     0.356970000000     0.985040000000    -0.010789   
C171     C      0.102300000000     0.369500000000     0.982100000000    -0.0102728  
C172     C      0.144140000000     0.360890000000     0.510100000000    -0.0105439  
C173     C      0.105600000000     0.247650000000     0.624260000000    -0.0109036  
C174     C      0.134050000000     0.234360000000     0.585000000000    -0.0107969  
C175     C      0.131460000000     0.248500000000     0.641400000000    -0.00996613 
C176     C      0.159950000000     0.234980000000     0.602080000000    -0.0103682  
C177     C      0.016080000000     0.125860000000     0.891360000000    -0.0109349  
C178     C      0.475000000000     0.114810000000     0.863310000000    -0.0107929  
C179     C      0.033880000000     0.127680000000     0.866510000000    -0.0106579  
C180     C      0.492610000000     0.117280000000     0.838440000000    -0.0106784  
C181     C      0.388180000000     0.086860000000     0.485820000000    -0.0105589  
C182     C      0.346630000000     0.113900000000     0.973840000000    -0.0102616  
C183     C      0.404820000000     0.112610000000     0.489470000000    -0.0103045  
C184     C      0.362990000000     0.139850000000     0.977220000000    -0.010465   
C185     C      0.389460000000     0.223100000000     0.851850000000    -0.0114482  
C186     C      0.383990000000     0.256610000000     0.888930000000    -0.0109327  
C187     C      0.394020000000     0.246230000000     0.832520000000    -0.0100319  
C188     C      0.388500000000     0.279470000000     0.869210000000    -0.0110608  
C189     C      0.509600000000     0.247890000000     0.961070000000    -0.00997868 
C190     C      0.478400000000     0.239110000000     0.499740000000    -0.0100984  
C191     C      0.034570000000     0.244960000000     0.979190000000    -0.0106211  
C192     C      0.503400000000     0.236200000000     0.517770000000    -0.0105637  
C193     C      0.470880000000     0.715990000000     0.457140000000     0.408707   
C194     C      0.471470000000     0.648380000000     0.399110000000     0.400197   
C195     C      0.408450000000     0.650520000000     0.458200000000     0.414375   
C196     C      0.411300000000     0.715280000000     0.395200000000     0.404774   
C197     C      0.041240000000     0.769140000000     0.021400000000     0.405752   
C198     C      0.098830000000     0.769930000000     0.081080000000     0.406061   
C199     C      0.100020000000     0.838460000000     0.020170000000     0.406108   
C200     C      0.040430000000     0.840960000000     0.077930000000     0.404959   
C201     C      0.162760000000     0.890230000000     0.448750000000     0.405582   
C202     C      0.219040000000     0.954890000000     0.459190000000     0.408729   
C203     C      0.220620000000     0.901420000000     0.385040000000     0.406297   
C204     C      0.161710000000     0.964880000000     0.394140000000     0.403198   
C205     C      0.344090000000     0.579470000000     0.008980000000     0.406222   
C206     C      0.284640000000     0.522440000000     0.013720000000     0.40508    
C207     C      0.344230000000     0.526600000000     0.082860000000     0.403883   
C208     C      0.284940000000     0.586370000000     0.077580000000     0.405424   
C209     C      0.164400000000     0.653040000000     0.208150000000     0.402522   
C210     C      0.167820000000     0.714140000000     0.145750000000     0.409879   
C211     C      0.231250000000     0.713710000000     0.206430000000     0.404672   
C212     C      0.230790000000     0.647810000000     0.149170000000     0.412497   
C213     C      0.361410000000     0.784060000000     0.328060000000     0.403574   
C214     C      0.287130000000     0.779700000000     0.272610000000     0.408185   
C215     C      0.292860000000     0.837860000000     0.334590000000     0.407435   
C216     C      0.351550000000     0.839770000000     0.263160000000     0.406144   
C217     C      0.415300000000     0.963370000000     0.136470000000     0.406855   
C218     C      0.417670000000     0.906820000000     0.208220000000     0.408225   
C219     C      0.476030000000     0.900020000000     0.143940000000     0.404943   
C220     C      0.474110000000     0.972030000000     0.200800000000     0.402977   
C221     C      0.036900000000     0.594500000000     0.330240000000     0.402542   
C222     C      0.094970000000     0.598010000000     0.272630000000     0.404092   
C223     C      0.096770000000     0.524380000000     0.329060000000     0.406922   
C224     C      0.039110000000     0.526120000000     0.269730000000     0.399524   
C225     C      0.015150000000     0.000780000000     0.206930000000    -0.0106126  
C226     C      0.476920000000     0.501210000000     0.240220000000    -0.0109191  
C227     C      0.036200000000     0.998260000000     0.229300000000    -0.0111857  
C228     C      0.497800000000     0.498170000000     0.262560000000    -0.0108122  
C229     C      0.392080000000     0.844850000000     0.234110000000    -0.0113266  
C230     C      0.355180000000     0.880140000000     0.234890000000    -0.0108815  
C231     C      0.414010000000     0.866660000000     0.236750000000    -0.0106673  
C232     C      0.377140000000     0.901960000000     0.237340000000    -0.0102306  
C233     C      0.123050000000     0.624680000000     0.212790000000    -0.0106035  
C234     C      0.156710000000     0.629620000000     0.250460000000    -0.0112161  
C235     C      0.099300000000     0.626190000000     0.232540000000    -0.0108347  
C236     C      0.132700000000     0.631160000000     0.269830000000    -0.0103164  
C237     C      0.265660000000     0.718430000000     0.242010000000    -0.0107141  
C238     C      0.252450000000     0.758120000000     0.213910000000    -0.0107676  
C239     C      0.263790000000     0.736010000000     0.266700000000    -0.0104946  
C240     C      0.250820000000     0.775600000000     0.238670000000    -0.0105997  
C241     C      0.384980000000     0.524100000000     0.112010000000    -0.0106371  
C242     C      0.350670000000     0.986460000000     0.111010000000    -0.0108796  
C243     C      0.408410000000     0.503860000000     0.108940000000    -0.0111109  
C244     C      0.374060000000     0.966170000000     0.108030000000    -0.0104436  
C245     C      0.274540000000     0.638800000000     0.125980000000    -0.0100939  
C246     C      0.239700000000     0.602160000000     0.132040000000    -0.0105343  
C247     C      0.277390000000     0.631360000000     0.096810000000    -0.0108503  
C248     C      0.242410000000     0.594610000000     0.102910000000    -0.0106576  
C249     C      0.120060000000     0.492980000000     0.389430000000    -0.0108793  
C250     C      0.159010000000     0.997190000000     0.357120000000    -0.0113412  
C251     C      0.099550000000     0.492610000000     0.366530000000    -0.0107601  
C252     C      0.138560000000     0.496620000000     0.334190000000    -0.0106412  
C253     C      0.250810000000     0.840980000000     0.361890000000    -0.0107968  
C254     C      0.285340000000     0.878520000000     0.361730000000    -0.0103816  
C255     C      0.227720000000     0.861250000000     0.357110000000    -0.0109593  
C256     C      0.262210000000     0.898730000000     0.357050000000    -0.0103833  
C257     C      0.241640000000     0.515520000000     0.988740000000    -0.010408   
C258     C      0.280940000000     0.482840000000     0.484490000000    -0.0106453  
C259     C      0.221650000000     0.992060000000     0.991440000000    -0.0105888  
C260     C      0.260660000000     0.959520000000     0.486880000000    -0.0102312  
C261     C      0.019710000000     0.875550000000     0.137280000000    -0.0109017  
C262     C      0.478590000000     0.865570000000     0.108840000000    -0.0110365  
C263     C      0.037990000000     0.875820000000     0.112680000000    -0.0107139  
C264     C      0.496900000000     0.865770000000     0.084290000000    -0.0107177  
C265     C      0.119550000000     0.865460000000     0.457150000000    -0.0108363  
C266     C      0.161240000000     0.856970000000     0.485040000000    -0.0108466  
C267     C      0.102300000000     0.869500000000     0.482100000000    -0.0103146  
C268     C      0.144140000000     0.860900000000     0.010100000000    -0.0106615  
C269     C      0.105600000000     0.747650000000     0.124260000000    -0.0109434  
C270     C      0.134050000000     0.734360000000     0.085000000000    -0.0107927  
C271     C      0.131460000000     0.748500000000     0.141400000000    -0.00995588 
C272     C      0.159950000000     0.734980000000     0.102080000000    -0.0103777  
C273     C      0.016080000000     0.625850000000     0.391360000000    -0.0109807  
C274     C      0.475000000000     0.614810000000     0.363310000000    -0.0107543  
C275     C      0.033880000000     0.627680000000     0.366510000000    -0.0106033  
C276     C      0.492610000000     0.617280000000     0.338440000000    -0.0107319  
C277     C      0.388180000000     0.586860000000     0.985820000000    -0.0105954  
C278     C      0.346630000000     0.613900000000     0.473840000000    -0.0102652  
C279     C      0.404820000000     0.612610000000     0.989470000000    -0.0102128  
C280     C      0.362990000000     0.639850000000     0.477220000000    -0.0104681  
C281     C      0.389460000000     0.723100000000     0.351850000000    -0.011445   
C282     C      0.383990000000     0.756610000000     0.388930000000    -0.0108821  
C283     C      0.394020000000     0.746230000000     0.332520000000    -0.0100315  
C284     C      0.388500000000     0.779470000000     0.369220000000    -0.0111727  
C285     C      0.509600000000     0.747900000000     0.461070000000    -0.0100529  
C286     C      0.478400000000     0.739110000000     0.999740000000    -0.0098513  
C287     C      0.034570000000     0.744960000000     0.479190000000    -0.0106394  
C288     C      0.503400000000     0.736200000000     0.017770000000    -0.0106841  
C289     C      0.470880000000     0.715990000000     0.957140000000     0.408719   
C290     C      0.471470000000     0.648380000000     0.899110000000     0.400198   
C291     C      0.408450000000     0.650520000000     0.958200000000     0.41438    
C292     C      0.411300000000     0.715280000000     0.895200000000     0.404772   
C293     C      0.041240000000     0.769140000000     0.521400000000     0.405758   
C294     C      0.098830000000     0.769930000000     0.581080000000     0.406057   
C295     C      0.100020000000     0.838460000000     0.520170000000     0.406399   
C296     C      0.040430000000     0.840960000000     0.577930000000     0.404959   
C297     C      0.162760000000     0.890230000000     0.948750000000     0.405586   
C298     C      0.219040000000     0.954890000000     0.959190000000     0.408737   
C299     C      0.220620000000     0.901420000000     0.885040000000     0.406297   
C300     C      0.161710000000     0.964880000000     0.894140000000     0.403199   
C301     C      0.344090000000     0.579470000000     0.508980000000     0.406138   
C302     C      0.284640000000     0.522440000000     0.513720000000     0.405147   
C303     C      0.344230000000     0.526600000000     0.582860000000     0.403884   
C304     C      0.284940000000     0.586370000000     0.577580000000     0.405425   
C305     C      0.164400000000     0.653040000000     0.708150000000     0.402521   
C306     C      0.167820000000     0.714140000000     0.645750000000     0.409879   
C307     C      0.231250000000     0.713710000000     0.706430000000     0.404672   
C308     C      0.230790000000     0.647810000000     0.649170000000     0.412498   
C309     C      0.361410000000     0.784060000000     0.828060000000     0.403578   
C310     C      0.287130000000     0.779700000000     0.772610000000     0.408185   
C311     C      0.292860000000     0.837860000000     0.834590000000     0.407435   
C312     C      0.351550000000     0.839770000000     0.763160000000     0.406144   
C313     C      0.415300000000     0.963370000000     0.636470000000     0.406917   
C314     C      0.417670000000     0.906820000000     0.708220000000     0.408226   
C315     C      0.476030000000     0.900020000000     0.643940000000     0.404941   
C316     C      0.474110000000     0.972030000000     0.700800000000     0.402974   
C317     C      0.036900000000     0.594500000000     0.830240000000     0.402615   
C318     C      0.094970000000     0.598010000000     0.772630000000     0.403837   
C319     C      0.096770000000     0.524380000000     0.829060000000     0.406917   
C320     C      0.039110000000     0.526120000000     0.769730000000     0.399519   
C321     C      0.015150000000     0.000780000000     0.706930000000    -0.0106131  
C322     C      0.476920000000     0.501210000000     0.740220000000    -0.0109192  
C323     C      0.036200000000     0.998260000000     0.729300000000    -0.0111865  
C324     C      0.497800000000     0.498170000000     0.762560000000    -0.010813   
C325     C      0.392080000000     0.844850000000     0.734110000000    -0.0113269  
C326     C      0.355180000000     0.880140000000     0.734890000000    -0.0108819  
C327     C      0.414010000000     0.866660000000     0.736750000000    -0.0106677  
C328     C      0.377140000000     0.901960000000     0.737340000000    -0.0102309  
C329     C      0.123050000000     0.624680000000     0.712790000000    -0.0105997  
C330     C      0.156710000000     0.629620000000     0.750460000000    -0.0112183  
C331     C      0.099300000000     0.626190000000     0.732540000000    -0.0108466  
C332     C      0.132700000000     0.631160000000     0.769830000000    -0.0103239  
C333     C      0.265660000000     0.718430000000     0.742010000000    -0.0107143  
C334     C      0.252450000000     0.758120000000     0.713910000000    -0.010768   
C335     C      0.263790000000     0.736010000000     0.766700000000    -0.0104948  
C336     C      0.250820000000     0.775600000000     0.738670000000    -0.0105997  
C337     C      0.384980000000     0.524100000000     0.612010000000    -0.0106351  
C338     C      0.350670000000     0.986460000000     0.611000000000    -0.0108261  
C339     C      0.408410000000     0.503860000000     0.608940000000    -0.0111133  
C340     C      0.374060000000     0.966170000000     0.608030000000    -0.0104626  
C341     C      0.274540000000     0.638800000000     0.625980000000    -0.0100931  
C342     C      0.239700000000     0.602160000000     0.632040000000    -0.0105337  
C343     C      0.277390000000     0.631360000000     0.596810000000    -0.0108516  
C344     C      0.242410000000     0.594610000000     0.602910000000    -0.0106585  
C345     C      0.120060000000     0.492980000000     0.889430000000    -0.0108799  
C346     C      0.159010000000     0.997190000000     0.857120000000    -0.0113414  
C347     C      0.099550000000     0.492610000000     0.866530000000    -0.0107602  
C348     C      0.138560000000     0.496620000000     0.834190000000    -0.0106416  
C349     C      0.250810000000     0.840980000000     0.861890000000    -0.0107974  
C350     C      0.285340000000     0.878520000000     0.861730000000    -0.0103822  
C351     C      0.227720000000     0.861250000000     0.857110000000    -0.0109589  
C352     C      0.262210000000     0.898730000000     0.857050000000    -0.0103829  
C353     C      0.241640000000     0.515520000000     0.488740000000    -0.0104758  
C354     C      0.280940000000     0.482840000000     0.984490000000    -0.0106697  
C355     C      0.221650000000     0.992060000000     0.491440000000    -0.0106552  
C356     C      0.260660000000     0.959520000000     0.986880000000    -0.010138   
C357     C      0.019710000000     0.875550000000     0.637280000000    -0.0108681  
C358     C      0.478590000000     0.865570000000     0.608840000000    -0.0110336  
C359     C      0.037990000000     0.875820000000     0.612690000000    -0.0107854  
C360     C      0.496900000000     0.865770000000     0.584290000000    -0.0107208  
C361     C      0.119550000000     0.865460000000     0.957150000000    -0.0108396  
C362     C      0.161240000000     0.856970000000     0.985040000000    -0.0107776  
C363     C      0.102300000000     0.869500000000     0.982100000000    -0.0102731  
C364     C      0.144140000000     0.860900000000     0.510100000000    -0.0105725  
C365     C      0.105600000000     0.747650000000     0.624260000000    -0.0109442  
C366     C      0.134050000000     0.734360000000     0.585000000000    -0.0107944  
C367     C      0.131460000000     0.748500000000     0.641400000000    -0.00995572 
C368     C      0.159950000000     0.734980000000     0.602080000000    -0.0103773  
C369     C      0.016080000000     0.625850000000     0.891360000000    -0.0109702  
C370     C      0.475000000000     0.614810000000     0.863310000000    -0.0107726  
C371     C      0.033880000000     0.627680000000     0.866510000000    -0.0106476  
C372     C      0.492610000000     0.617280000000     0.838440000000    -0.0106876  
C373     C      0.388180000000     0.586860000000     0.485820000000    -0.0105796  
C374     C      0.346630000000     0.613900000000     0.973840000000    -0.0102627  
C375     C      0.404820000000     0.612610000000     0.489470000000    -0.0103008  
C376     C      0.362990000000     0.639850000000     0.977220000000    -0.0104651  
C377     C      0.389460000000     0.723100000000     0.851850000000    -0.0114491  
C378     C      0.383990000000     0.756610000000     0.888930000000    -0.010933   
C379     C      0.394020000000     0.746230000000     0.832520000000    -0.0100284  
C380     C      0.388500000000     0.779470000000     0.869210000000    -0.0110605  
C381     C      0.509600000000     0.747900000000     0.961070000000    -0.0100528  
C382     C      0.478400000000     0.739110000000     0.499740000000    -0.0101002  
C383     C      0.034570000000     0.744960000000     0.979190000000    -0.0105911  
C384     C      0.503400000000     0.736200000000     0.517770000000    -0.0105614  
C385     C      0.970880000000     0.215990000000     0.457140000000     0.40871    
C386     C      0.971470000000     0.148380000000     0.399110000000     0.400287   
C387     C      0.908450000000     0.150520000000     0.458200000000     0.414375   
C388     C      0.911300000000     0.215280000000     0.395200000000     0.404774   
C389     C      0.541230000000     0.269140000000     0.021400000000     0.405726   
C390     C      0.598830000000     0.269930000000     0.081080000000     0.406064   
C391     C      0.600020000000     0.338460000000     0.020170000000     0.406108   
C392     C      0.540430000000     0.340960000000     0.077930000000     0.404962   
C393     C      0.662760000000     0.390230000000     0.448750000000     0.40558    
C394     C      0.719040000000     0.454890000000     0.459190000000     0.408729   
C395     C      0.720620000000     0.401420000000     0.385040000000     0.406294   
C396     C      0.661710000000     0.464880000000     0.394140000000     0.403131   
C397     C      0.844090000000     0.079470000000     0.008980000000     0.406222   
C398     C      0.784630000000     0.022440000000     0.013720000000     0.405054   
C399     C      0.844230000000     0.026600000000     0.082860000000     0.403885   
C400     C      0.784940000000     0.086370000000     0.077580000000     0.405343   
C401     C      0.664400000000     0.153040000000     0.208150000000     0.40244    
C402     C      0.667830000000     0.214140000000     0.145750000000     0.410093   
C403     C      0.731250000000     0.213710000000     0.206430000000     0.40467    
C404     C      0.730790000000     0.147810000000     0.149170000000     0.412494   
C405     C      0.861410000000     0.284060000000     0.328060000000     0.40354    
C406     C      0.787130000000     0.279700000000     0.272610000000     0.408168   
C407     C      0.792860000000     0.337860000000     0.334590000000     0.407191   
C408     C      0.851550000000     0.339770000000     0.263160000000     0.406148   
C409     C      0.915300000000     0.463370000000     0.136470000000     0.406866   
C410     C      0.917670000000     0.406820000000     0.208220000000     0.408163   
C411     C      0.976030000000     0.400020000000     0.143940000000     0.405035   
C412     C      0.974110000000     0.472030000000     0.200800000000     0.402926   
C413     C      0.536900000000     0.094500000000     0.330240000000     0.402541   
C414     C      0.594970000000     0.098010000000     0.272630000000     0.404093   
C415     C      0.596770000000     0.024380000000     0.329060000000     0.406916   
C416     C      0.539110000000     0.026110000000     0.269730000000     0.399539   
C417     C      0.515150000000     0.500780000000     0.206930000000    -0.0106967  
C418     C      0.976920000000     0.001220000000     0.240220000000    -0.0107669  
C419     C      0.536200000000     0.498260000000     0.229300000000    -0.0110501  
C420     C      0.997800000000     0.998180000000     0.262560000000    -0.0109307  
C421     C      0.892080000000     0.344840000000     0.234110000000    -0.0114912  
C422     C      0.855180000000     0.380140000000     0.234890000000    -0.0108777  
C423     C      0.914010000000     0.366660000000     0.236750000000    -0.0105565  
C424     C      0.877140000000     0.401960000000     0.237340000000    -0.0102354  
C425     C      0.623050000000     0.124680000000     0.212790000000    -0.0105562  
C426     C      0.656710000000     0.129620000000     0.250460000000    -0.0112662  
C427     C      0.599300000000     0.126190000000     0.232540000000    -0.0108486  
C428     C      0.632700000000     0.131160000000     0.269830000000    -0.0102976  
C429     C      0.765660000000     0.218430000000     0.242010000000    -0.0107338  
C430     C      0.752450000000     0.258120000000     0.213910000000    -0.0107764  
C431     C      0.763800000000     0.236010000000     0.266700000000    -0.0104479  
C432     C      0.750820000000     0.275590000000     0.238670000000    -0.010595   
C433     C      0.884980000000     0.024100000000     0.112010000000    -0.0106429  
C434     C      0.850670000000     0.486460000000     0.111010000000    -0.0108379  
C435     C      0.908410000000     0.003860000000     0.108940000000    -0.0110774  
C436     C      0.874060000000     0.466170000000     0.108030000000    -0.0104514  
C437     C      0.774540000000     0.138800000000     0.125980000000    -0.0100762  
C438     C      0.739700000000     0.102160000000     0.132040000000    -0.0104986  
C439     C      0.777390000000     0.131360000000     0.096810000000    -0.0109021  
C440     C      0.742400000000     0.094610000000     0.102910000000    -0.0107361  
C441     C      0.620060000000     0.992980000000     0.389430000000    -0.0108873  
C442     C      0.659010000000     0.497190000000     0.357120000000    -0.0113054  
C443     C      0.599550000000     0.992610000000     0.366530000000    -0.0108509  
C444     C      0.638560000000     0.996620000000     0.334190000000    -0.0107233  
C445     C      0.750810000000     0.340980000000     0.361890000000    -0.0108199  
C446     C      0.785340000000     0.378520000000     0.361730000000    -0.0103902  
C447     C      0.727720000000     0.361250000000     0.357110000000    -0.0109145  
C448     C      0.762210000000     0.398730000000     0.357050000000    -0.01038    
C449     C      0.741640000000     0.015520000000     0.988740000000    -0.0103677  
C450     C      0.780940000000     0.982840000000     0.484490000000    -0.0106726  
C451     C      0.721650000000     0.492060000000     0.991440000000    -0.0105461  
C452     C      0.760660000000     0.459520000000     0.486880000000    -0.0102826  
C453     C      0.519710000000     0.375550000000     0.137280000000    -0.0108704  
C454     C      0.978590000000     0.365570000000     0.108840000000    -0.011112   
C455     C      0.537990000000     0.375820000000     0.112680000000    -0.0107059  
C456     C      0.996900000000     0.365770000000     0.084290000000    -0.010668   
C457     C      0.619560000000     0.365460000000     0.457150000000    -0.0107164  
C458     C      0.661240000000     0.356970000000     0.485040000000    -0.0108547  
C459     C      0.602300000000     0.369500000000     0.482100000000    -0.0103682  
C460     C      0.644140000000     0.360890000000     0.010100000000    -0.0106376  
C461     C      0.605600000000     0.247650000000     0.124260000000    -0.0109028  
C462     C      0.634050000000     0.234360000000     0.085000000000    -0.01079    
C463     C      0.631460000000     0.248500000000     0.141400000000    -0.00996718 
C464     C      0.659950000000     0.234980000000     0.102080000000    -0.0103841  
C465     C      0.516080000000     0.125860000000     0.391360000000    -0.0109218  
C466     C      0.975000000000     0.114810000000     0.363310000000    -0.0107776  
C467     C      0.533880000000     0.127680000000     0.366510000000    -0.0106169  
C468     C      0.992610000000     0.117280000000     0.338440000000    -0.010706   
C469     C      0.888180000000     0.086860000000     0.985820000000    -0.0105886  
C470     C      0.846630000000     0.113900000000     0.473840000000    -0.0102584  
C471     C      0.904820000000     0.112610000000     0.989470000000    -0.0102113  
C472     C      0.862990000000     0.139850000000     0.477220000000    -0.0104834  
C473     C      0.889460000000     0.223100000000     0.351850000000    -0.011443   
C474     C      0.883990000000     0.256610000000     0.388930000000    -0.0108817  
C475     C      0.894020000000     0.246230000000     0.332520000000    -0.0100371  
C476     C      0.888500000000     0.279470000000     0.369220000000    -0.0111721  
C477     C      0.009610000000     0.247890000000     0.461070000000    -0.0100599  
C478     C      0.978400000000     0.239110000000     0.999740000000    -0.00981583 
C479     C      0.534570000000     0.244960000000     0.479190000000    -0.010653   
C480     C      0.003400000000     0.236200000000     0.017770000000    -0.0107447  
C481     C      0.970880000000     0.215990000000     0.957140000000     0.408723   
C482     C      0.971470000000     0.148380000000     0.899110000000     0.400288   
C483     C      0.908450000000     0.150520000000     0.958200000000     0.41438    
C484     C      0.911300000000     0.215280000000     0.895200000000     0.404772   
C485     C      0.541230000000     0.269140000000     0.521400000000     0.405732   
C486     C      0.598830000000     0.269930000000     0.581080000000     0.40606    
C487     C      0.600020000000     0.338460000000     0.520170000000     0.4064     
C488     C      0.540430000000     0.340960000000     0.577930000000     0.404962   
C489     C      0.662760000000     0.390230000000     0.948750000000     0.405584   
C490     C      0.719040000000     0.454890000000     0.959190000000     0.408737   
C491     C      0.720620000000     0.401420000000     0.885040000000     0.406294   
C492     C      0.661710000000     0.464880000000     0.894140000000     0.403131   
C493     C      0.844090000000     0.079470000000     0.508980000000     0.406139   
C494     C      0.784630000000     0.022440000000     0.513720000000     0.405121   
C495     C      0.844230000000     0.026600000000     0.582860000000     0.403886   
C496     C      0.784940000000     0.086370000000     0.577580000000     0.405345   
C497     C      0.664400000000     0.153040000000     0.708150000000     0.402439   
C498     C      0.667830000000     0.214140000000     0.645750000000     0.410093   
C499     C      0.731250000000     0.213710000000     0.706430000000     0.40467    
C500     C      0.730790000000     0.147810000000     0.649170000000     0.412495   
C501     C      0.861410000000     0.284060000000     0.828060000000     0.403543   
C502     C      0.787130000000     0.279700000000     0.772610000000     0.408168   
C503     C      0.792860000000     0.337860000000     0.834590000000     0.407191   
C504     C      0.851550000000     0.339770000000     0.763160000000     0.406148   
C505     C      0.915300000000     0.463370000000     0.636470000000     0.406928   
C506     C      0.917670000000     0.406820000000     0.708220000000     0.408164   
C507     C      0.976030000000     0.400020000000     0.643940000000     0.405033   
C508     C      0.974110000000     0.472030000000     0.700800000000     0.402922   
C509     C      0.536900000000     0.094500000000     0.830240000000     0.402615   
C510     C      0.594970000000     0.098010000000     0.772630000000     0.403838   
C511     C      0.596770000000     0.024380000000     0.829060000000     0.40691    
C512     C      0.539110000000     0.026110000000     0.769730000000     0.399533   
C513     C      0.515150000000     0.500780000000     0.706930000000    -0.0106973  
C514     C      0.976920000000     0.001220000000     0.740220000000    -0.0107669  
C515     C      0.536200000000     0.498260000000     0.729300000000    -0.0110506  
C516     C      0.997800000000     0.998180000000     0.762560000000    -0.0109316  
C517     C      0.892080000000     0.344840000000     0.734110000000    -0.0114915  
C518     C      0.855180000000     0.380140000000     0.734890000000    -0.010878   
C519     C      0.914010000000     0.366660000000     0.736750000000    -0.0105569  
C520     C      0.877140000000     0.401960000000     0.737340000000    -0.0102357  
C521     C      0.623050000000     0.124680000000     0.712790000000    -0.0105524  
C522     C      0.656710000000     0.129620000000     0.750460000000    -0.0112684  
C523     C      0.599300000000     0.126190000000     0.732540000000    -0.0108605  
C524     C      0.632700000000     0.131160000000     0.769830000000    -0.0103051  
C525     C      0.765660000000     0.218430000000     0.742010000000    -0.010734   
C526     C      0.752450000000     0.258120000000     0.713910000000    -0.0107768  
C527     C      0.763800000000     0.236010000000     0.766700000000    -0.0104481  
C528     C      0.750820000000     0.275590000000     0.738670000000    -0.010595   
C529     C      0.884980000000     0.024100000000     0.612010000000    -0.0106409  
C530     C      0.850670000000     0.486460000000     0.611000000000    -0.0107843  
C531     C      0.908410000000     0.003860000000     0.608940000000    -0.0110797  
C532     C      0.874060000000     0.466170000000     0.608030000000    -0.0104705  
C533     C      0.774540000000     0.138800000000     0.625980000000    -0.0100754  
C534     C      0.739700000000     0.102160000000     0.632040000000    -0.010498   
C535     C      0.777390000000     0.131360000000     0.596810000000    -0.0109035  
C536     C      0.742400000000     0.094610000000     0.602910000000    -0.010737   
C537     C      0.620060000000     0.992980000000     0.889430000000    -0.0108879  
C538     C      0.659010000000     0.497190000000     0.857120000000    -0.0113056  
C539     C      0.599550000000     0.992610000000     0.866530000000    -0.0108511  
C540     C      0.638560000000     0.996620000000     0.834190000000    -0.0107237  
C541     C      0.750810000000     0.340980000000     0.861890000000    -0.0108205  
C542     C      0.785340000000     0.378520000000     0.861730000000    -0.0103909  
C543     C      0.727720000000     0.361250000000     0.857110000000    -0.0109141  
C544     C      0.762210000000     0.398730000000     0.857050000000    -0.0103797  
C545     C      0.741640000000     0.015520000000     0.488740000000    -0.0104358  
C546     C      0.780940000000     0.982840000000     0.984490000000    -0.0106971  
C547     C      0.721650000000     0.492060000000     0.491440000000    -0.010613   
C548     C      0.760660000000     0.459520000000     0.986880000000    -0.0101888  
C549     C      0.519710000000     0.375550000000     0.637280000000    -0.0108365  
C550     C      0.978590000000     0.365570000000     0.608840000000    -0.0111091  
C551     C      0.537990000000     0.375820000000     0.612690000000    -0.0107775  
C552     C      0.996900000000     0.365770000000     0.584290000000    -0.0106708  
C553     C      0.619560000000     0.365460000000     0.957150000000    -0.0107197  
C554     C      0.661240000000     0.356970000000     0.985040000000    -0.0107853  
C555     C      0.602300000000     0.369500000000     0.982100000000    -0.0103263  
C556     C      0.644140000000     0.360890000000     0.510100000000    -0.0105482  
C557     C      0.605600000000     0.247650000000     0.624260000000    -0.0109036  
C558     C      0.634050000000     0.234360000000     0.585000000000    -0.0107917  
C559     C      0.631460000000     0.248500000000     0.641400000000    -0.00996702 
C560     C      0.659950000000     0.234980000000     0.602080000000    -0.0103837  
C561     C      0.516080000000     0.125860000000     0.891360000000    -0.0109112  
C562     C      0.975000000000     0.114810000000     0.863310000000    -0.010796   
C563     C      0.533880000000     0.127680000000     0.866510000000    -0.0106612  
C564     C      0.992610000000     0.117280000000     0.838440000000    -0.0106616  
C565     C      0.888180000000     0.086860000000     0.485820000000    -0.0105726  
C566     C      0.846630000000     0.113900000000     0.973840000000    -0.010256   
C567     C      0.904820000000     0.112610000000     0.489470000000    -0.0102996  
C568     C      0.862990000000     0.139850000000     0.977220000000    -0.0104804  
C569     C      0.889460000000     0.223100000000     0.851850000000    -0.0114471  
C570     C      0.883990000000     0.256610000000     0.888930000000    -0.0109326  
C571     C      0.894020000000     0.246230000000     0.832520000000    -0.010034   
C572     C      0.888500000000     0.279470000000     0.869210000000    -0.0110599  
C573     C      0.009610000000     0.247890000000     0.961070000000    -0.01006    
C574     C      0.978400000000     0.239110000000     0.499740000000    -0.0100655  
C575     C      0.534570000000     0.244960000000     0.979190000000    -0.0106044  
C576     C      0.003400000000     0.236200000000     0.517770000000    -0.0106223  
C577     C      0.970880000000     0.715990000000     0.457140000000     0.408707   
C578     C      0.971470000000     0.648380000000     0.399110000000     0.400198   
C579     C      0.908450000000     0.650520000000     0.458200000000     0.414374   
C580     C      0.911300000000     0.715280000000     0.395200000000     0.404774   
C581     C      0.541230000000     0.769140000000     0.021400000000     0.405727   
C582     C      0.598830000000     0.769930000000     0.081080000000     0.406062   
C583     C      0.600020000000     0.838460000000     0.020170000000     0.406107   
C584     C      0.540430000000     0.840960000000     0.077930000000     0.404961   
C585     C      0.662760000000     0.890230000000     0.448750000000     0.405585   
C586     C      0.719040000000     0.954890000000     0.459190000000     0.408728   
C587     C      0.720620000000     0.901420000000     0.385040000000     0.406298   
C588     C      0.661710000000     0.964880000000     0.394140000000     0.403199   
C589     C      0.844090000000     0.579470000000     0.008980000000     0.406221   
C590     C      0.784630000000     0.522440000000     0.013720000000     0.405051   
C591     C      0.844230000000     0.526600000000     0.082860000000     0.403884   
C592     C      0.784940000000     0.586370000000     0.077580000000     0.405343   
C593     C      0.664400000000     0.653040000000     0.208150000000     0.402439   
C594     C      0.667830000000     0.714140000000     0.145750000000     0.409918   
C595     C      0.731250000000     0.713710000000     0.206430000000     0.404674   
C596     C      0.730790000000     0.647810000000     0.149170000000     0.412499   
C597     C      0.861410000000     0.784060000000     0.328060000000     0.403549   
C598     C      0.787130000000     0.779700000000     0.272610000000     0.408181   
C599     C      0.792860000000     0.837860000000     0.334590000000     0.407438   
C600     C      0.851550000000     0.839770000000     0.263160000000     0.406145   
C601     C      0.915300000000     0.963370000000     0.136470000000     0.406855   
C602     C      0.917670000000     0.906820000000     0.208220000000     0.408226   
C603     C      0.976030000000     0.900020000000     0.143940000000     0.404943   
C604     C      0.974110000000     0.972030000000     0.200800000000     0.403048   
C605     C      0.536900000000     0.594500000000     0.330240000000     0.402544   
C606     C      0.594970000000     0.598010000000     0.272630000000     0.404092   
C607     C      0.596770000000     0.524380000000     0.329060000000     0.406922   
C608     C      0.539110000000     0.526120000000     0.269730000000     0.399529   
C609     C      0.515150000000     0.000780000000     0.206930000000    -0.0105344  
C610     C      0.976920000000     0.501210000000     0.240220000000    -0.0108542  
C611     C      0.536200000000     0.998260000000     0.229300000000    -0.0112036  
C612     C      0.997800000000     0.498170000000     0.262560000000    -0.0108485  
C613     C      0.892080000000     0.844850000000     0.234110000000    -0.0113561  
C614     C      0.855180000000     0.880140000000     0.234890000000    -0.0108818  
C615     C      0.914010000000     0.866660000000     0.236750000000    -0.0106553  
C616     C      0.877140000000     0.901960000000     0.237340000000    -0.01023    
C617     C      0.623050000000     0.624680000000     0.212790000000    -0.0105561  
C618     C      0.656710000000     0.629620000000     0.250460000000    -0.0112659  
C619     C      0.599300000000     0.626190000000     0.232540000000    -0.0108483  
C620     C      0.632700000000     0.631160000000     0.269830000000    -0.0102975  
C621     C      0.765660000000     0.718430000000     0.242010000000    -0.0107197  
C622     C      0.752450000000     0.758120000000     0.213910000000    -0.010751   
C623     C      0.763800000000     0.736010000000     0.266700000000    -0.010479   
C624     C      0.750820000000     0.775600000000     0.238670000000    -0.0106485  
C625     C      0.884980000000     0.524100000000     0.112010000000    -0.0106372  
C626     C      0.850670000000     0.986460000000     0.111010000000    -0.0108795  
C627     C      0.908410000000     0.503860000000     0.108940000000    -0.0111109  
C628     C      0.874060000000     0.966170000000     0.108030000000    -0.0104436  
C629     C      0.774540000000     0.638800000000     0.125980000000    -0.0100751  
C630     C      0.739700000000     0.602160000000     0.132040000000    -0.0104976  
C631     C      0.777390000000     0.631360000000     0.096810000000    -0.0109024  
C632     C      0.742400000000     0.594610000000     0.102910000000    -0.0107363  
C633     C      0.620060000000     0.492980000000     0.389430000000    -0.0108791  
C634     C      0.659010000000     0.997190000000     0.357120000000    -0.0113411  
C635     C      0.599550000000     0.492610000000     0.366530000000    -0.0107607  
C636     C      0.638560000000     0.496620000000     0.334190000000    -0.0106414  
C637     C      0.750810000000     0.840980000000     0.361890000000    -0.0108095  
C638     C      0.785340000000     0.878520000000     0.361730000000    -0.0103824  
C639     C      0.727720000000     0.861250000000     0.357110000000    -0.0109174  
C640     C      0.762210000000     0.898730000000     0.357050000000    -0.0103823  
C641     C      0.741640000000     0.515520000000     0.988740000000    -0.0104091  
C642     C      0.780940000000     0.482840000000     0.484490000000    -0.0106267  
C643     C      0.721650000000     0.992060000000     0.991440000000    -0.0105878  
C644     C      0.760660000000     0.959520000000     0.486880000000    -0.0102372  
C645     C      0.519710000000     0.875550000000     0.137280000000    -0.0108804  
C646     C      0.978590000000     0.865570000000     0.108840000000    -0.0110438  
C647     C      0.537990000000     0.875820000000     0.112680000000    -0.0107061  
C648     C      0.996900000000     0.865770000000     0.084290000000    -0.0106939  
C649     C      0.619560000000     0.865460000000     0.457150000000    -0.0107157  
C650     C      0.661240000000     0.856970000000     0.485040000000    -0.0108432  
C651     C      0.602300000000     0.869500000000     0.482100000000    -0.0103684  
C652     C      0.644140000000     0.860900000000     0.010100000000    -0.0106661  
C653     C      0.605600000000     0.747650000000     0.124260000000    -0.0109434  
C654     C      0.634050000000     0.734360000000     0.085000000000    -0.0107875  
C655     C      0.631460000000     0.748500000000     0.141400000000    -0.00995678 
C656     C      0.659950000000     0.734980000000     0.102080000000    -0.0103933  
C657     C      0.516080000000     0.625850000000     0.391360000000    -0.010957   
C658     C      0.975000000000     0.614810000000     0.363310000000    -0.0107574  
C659     C      0.533880000000     0.627680000000     0.366510000000    -0.0106066  
C660     C      0.992610000000     0.617280000000     0.338440000000    -0.0107151  
C661     C      0.888180000000     0.586860000000     0.985820000000    -0.0106093  
C662     C      0.846630000000     0.613900000000     0.473840000000    -0.0102595  
C663     C      0.904820000000     0.612610000000     0.989470000000    -0.0102076  
C664     C      0.862990000000     0.639850000000     0.477220000000    -0.0104834  
C665     C      0.889460000000     0.723100000000     0.351850000000    -0.011444   
C666     C      0.883990000000     0.756610000000     0.388930000000    -0.0108819  
C667     C      0.894020000000     0.746230000000     0.332520000000    -0.0100336  
C668     C      0.888500000000     0.779470000000     0.369220000000    -0.0111718  
C669     C      0.009610000000     0.747900000000     0.461070000000    -0.010134   
C670     C      0.978400000000     0.739110000000     0.999740000000    -0.00981759 
C671     C      0.534570000000     0.744960000000     0.479190000000    -0.010623   
C672     C      0.003400000000     0.736200000000     0.017770000000    -0.0107426  
C673     C      0.970880000000     0.715990000000     0.957140000000     0.408719   
C674     C      0.971470000000     0.648380000000     0.899110000000     0.400198   
C675     C      0.908450000000     0.650520000000     0.958200000000     0.41438    
C676     C      0.911300000000     0.715280000000     0.895200000000     0.404773   
C677     C      0.541230000000     0.769140000000     0.521400000000     0.405733   
C678     C      0.598830000000     0.769930000000     0.581080000000     0.406058   
C679     C      0.600020000000     0.838460000000     0.520170000000     0.406399   
C680     C      0.540430000000     0.840960000000     0.577930000000     0.404962   
C681     C      0.662760000000     0.890230000000     0.948750000000     0.40559    
C682     C      0.719040000000     0.954890000000     0.959190000000     0.408736   
C683     C      0.720620000000     0.901420000000     0.885040000000     0.406299   
C684     C      0.661710000000     0.964880000000     0.894140000000     0.403199   
C685     C      0.844090000000     0.579470000000     0.508980000000     0.406138   
C686     C      0.784630000000     0.522440000000     0.513720000000     0.405118   
C687     C      0.844230000000     0.526600000000     0.582860000000     0.403885   
C688     C      0.784940000000     0.586370000000     0.577580000000     0.405344   
C689     C      0.664400000000     0.653040000000     0.708150000000     0.402438   
C690     C      0.667830000000     0.714140000000     0.645750000000     0.409918   
C691     C      0.731250000000     0.713710000000     0.706430000000     0.404674   
C692     C      0.730790000000     0.647810000000     0.649170000000     0.4125     
C693     C      0.861410000000     0.784060000000     0.828060000000     0.403552   
C694     C      0.787130000000     0.779700000000     0.772610000000     0.408181   
C695     C      0.792860000000     0.837860000000     0.834590000000     0.407438   
C696     C      0.851550000000     0.839770000000     0.763160000000     0.406145   
C697     C      0.915300000000     0.963370000000     0.636470000000     0.406917   
C698     C      0.917670000000     0.906820000000     0.708220000000     0.408227   
C699     C      0.976030000000     0.900020000000     0.643940000000     0.404941   
C700     C      0.974110000000     0.972030000000     0.700800000000     0.403045   
C701     C      0.536900000000     0.594500000000     0.830240000000     0.402618   
C702     C      0.594970000000     0.598010000000     0.772630000000     0.403837   
C703     C      0.596770000000     0.524380000000     0.829060000000     0.406917   
C704     C      0.539110000000     0.526120000000     0.769730000000     0.399523   
C705     C      0.515150000000     0.000780000000     0.706930000000    -0.0105348  
C706     C      0.976920000000     0.501210000000     0.740220000000    -0.0108544  
C707     C      0.536200000000     0.998260000000     0.729300000000    -0.0112044  
C708     C      0.997800000000     0.498170000000     0.762560000000    -0.0108492  
C709     C      0.892080000000     0.844850000000     0.734110000000    -0.0113563  
C710     C      0.855180000000     0.880140000000     0.734890000000    -0.0108821  
C711     C      0.914010000000     0.866660000000     0.736750000000    -0.0106557  
C712     C      0.877140000000     0.901960000000     0.737340000000    -0.0102303  
C713     C      0.623050000000     0.624680000000     0.712790000000    -0.0105523  
C714     C      0.656710000000     0.629620000000     0.750460000000    -0.0112681  
C715     C      0.599300000000     0.626190000000     0.732540000000    -0.0108602  
C716     C      0.632700000000     0.631160000000     0.769830000000    -0.010305   
C717     C      0.765660000000     0.718430000000     0.742010000000    -0.0107199  
C718     C      0.752450000000     0.758120000000     0.713910000000    -0.0107514  
C719     C      0.763800000000     0.736010000000     0.766700000000    -0.0104793  
C720     C      0.750820000000     0.775600000000     0.738670000000    -0.0106485  
C721     C      0.884980000000     0.524100000000     0.612010000000    -0.0106351  
C722     C      0.850670000000     0.986460000000     0.611000000000    -0.010826   
C723     C      0.908410000000     0.503860000000     0.608940000000    -0.0111133  
C724     C      0.874060000000     0.966170000000     0.608030000000    -0.0104627  
C725     C      0.774540000000     0.638800000000     0.625980000000    -0.0100743  
C726     C      0.739700000000     0.602160000000     0.632040000000    -0.010497   
C727     C      0.777390000000     0.631360000000     0.596810000000    -0.0109038  
C728     C      0.742400000000     0.594610000000     0.602910000000    -0.0107372  
C729     C      0.620060000000     0.492980000000     0.889430000000    -0.0108796  
C730     C      0.659010000000     0.997190000000     0.857120000000    -0.0113413  
C731     C      0.599550000000     0.492610000000     0.866530000000    -0.0107609  
C732     C      0.638560000000     0.496620000000     0.834190000000    -0.0106418  
C733     C      0.750810000000     0.840980000000     0.861890000000    -0.0108102  
C734     C      0.785340000000     0.878520000000     0.861730000000    -0.0103831  
C735     C      0.727720000000     0.861250000000     0.857110000000    -0.0109171  
C736     C      0.762210000000     0.898730000000     0.857050000000    -0.0103819  
C737     C      0.741640000000     0.515520000000     0.488740000000    -0.0104771  
C738     C      0.780940000000     0.482840000000     0.984490000000    -0.0106511  
C739     C      0.721650000000     0.992060000000     0.491440000000    -0.0106545  
C740     C      0.760660000000     0.959520000000     0.986880000000    -0.0101436  
C741     C      0.519710000000     0.875550000000     0.637280000000    -0.0108466  
C742     C      0.978590000000     0.865570000000     0.608840000000    -0.0110409  
C743     C      0.537990000000     0.875820000000     0.612690000000    -0.0107776  
C744     C      0.996900000000     0.865770000000     0.584290000000    -0.0106968  
C745     C      0.619560000000     0.865460000000     0.957150000000    -0.0107189  
C746     C      0.661240000000     0.856970000000     0.985040000000    -0.0107739  
C747     C      0.602300000000     0.869500000000     0.982100000000    -0.0103266  
C748     C      0.644140000000     0.860900000000     0.510100000000    -0.0105769  
C749     C      0.605600000000     0.747650000000     0.624260000000    -0.0109442  
C750     C      0.634050000000     0.734360000000     0.585000000000    -0.0107892  
C751     C      0.631460000000     0.748500000000     0.641400000000    -0.00995662 
C752     C      0.659950000000     0.734980000000     0.602080000000    -0.0103929  
C753     C      0.516080000000     0.625850000000     0.891360000000    -0.0109463  
C754     C      0.975000000000     0.614810000000     0.863310000000    -0.0107757  
C755     C      0.533880000000     0.627680000000     0.866510000000    -0.0106509  
C756     C      0.992610000000     0.617280000000     0.838440000000    -0.0106707  
C757     C      0.888180000000     0.586860000000     0.485820000000    -0.0105933  
C758     C      0.846630000000     0.613900000000     0.973840000000    -0.010257   
C759     C      0.904820000000     0.612610000000     0.489470000000    -0.0102958  
C760     C      0.862990000000     0.639850000000     0.977220000000    -0.0104804  
C761     C      0.889460000000     0.723100000000     0.851850000000    -0.0114481  
C762     C      0.883990000000     0.756610000000     0.888930000000    -0.0109328  
C763     C      0.894020000000     0.746230000000     0.832520000000    -0.0100305  
C764     C      0.888500000000     0.779470000000     0.869210000000    -0.0110595  
C765     C      0.009610000000     0.747900000000     0.961070000000    -0.0101341  
C766     C      0.978400000000     0.739110000000     0.499740000000    -0.0100671  
C767     C      0.534570000000     0.744960000000     0.979190000000    -0.0105744  
C768     C      0.003400000000     0.736200000000     0.517770000000    -0.0106203  
H1       H      0.472660000000     0.022960000000     0.237490000000     0.0425099  
H2       H      0.012910000000     0.522410000000     0.201980000000     0.0426748  
H3       H      0.055400000000     0.508770000000     0.223430000000     0.0492975  
H4       H      0.457400000000     0.991310000000     0.246090000000     0.0488131  
H5       H      0.489780000000     0.008370000000     0.280500000000     0.0500765  
H6       H      0.499920000000     0.976460000000     0.267160000000     0.0406313  
H7       H      0.023110000000     0.490300000000     0.189130000000     0.0497829  
H8       H      0.041150000000     0.476640000000     0.231900000000     0.0410086  
H9       H      0.350030000000     0.377740000000     0.213630000000     0.0419784  
H10      H      0.389280000000     0.340370000000     0.212770000000     0.0411142  
H11      H      0.432990000000     0.360010000000     0.226440000000     0.0476853  
H12      H      0.336290000000     0.386790000000     0.245350000000     0.0493653  
H13      H      0.369740000000     0.420510000000     0.227430000000     0.0496709  
H14      H      0.379960000000     0.406580000000     0.258650000000     0.041862   
H15      H      0.399490000000     0.326250000000     0.243930000000     0.0482998  
H16      H      0.418960000000     0.369090000000     0.258050000000     0.040687   
H17      H      0.164180000000     0.108540000000     0.249910000000     0.0430623  
H18      H      0.127550000000     0.103180000000     0.208810000000     0.0433826  
H19      H      0.081820000000     0.114050000000     0.225000000000     0.0487139  
H20      H      0.173750000000     0.142360000000     0.257980000000     0.0496773  
H21      H      0.139190000000     0.122720000000     0.289170000000     0.0491357  
H22      H      0.127520000000     0.152670000000     0.272900000000     0.0399958  
H23      H      0.116450000000     0.134050000000     0.193900000000     0.0485455  
H24      H      0.092430000000     0.147430000000     0.233840000000     0.0401297  
H25      H      0.273210000000     0.260620000000     0.205100000000     0.0411466  
H26      H      0.287400000000     0.218110000000     0.235310000000     0.041784   
H27      H      0.278750000000     0.228630000000     0.281610000000     0.0495189  
H28      H      0.237150000000     0.265420000000     0.199280000000     0.0487443  
H29      H      0.256510000000     0.296540000000     0.233480000000     0.0481903  
H30      H      0.229160000000     0.275710000000     0.245630000000     0.0413066  
H31      H      0.259730000000     0.197560000000     0.247280000000     0.0500577  
H32      H      0.242830000000     0.233860000000     0.275140000000     0.0422162  
H33      H      0.345670000000     0.488250000000     0.132360000000     0.041036   
H34      H      0.382010000000     0.028030000000     0.133440000000     0.0401723  
H35      H      0.426910000000     0.011600000000     0.119300000000     0.0479678  
H36      H      0.332140000000     0.478710000000     0.100700000000     0.0489587  
H37      H      0.368060000000     0.447040000000     0.117720000000     0.0496565  
H38      H      0.376940000000     0.462060000000     0.086620000000     0.0423982  
H39      H      0.390970000000     0.043310000000     0.102450000000     0.0491569  
H40      H      0.413430000000     0.002160000000     0.087580000000     0.0422689  
H41      H      0.253940000000     0.089280000000     0.143610000000     0.0398999  
H42      H      0.290730000000     0.127980000000     0.137230000000     0.0400723  
H43      H      0.298810000000     0.135440000000     0.090350000000     0.0487589  
H44      H      0.218430000000     0.097810000000     0.138760000000     0.0481234  
H45      H      0.238990000000     0.072670000000     0.100740000000     0.0493742  
H46      H      0.225960000000     0.105130000000     0.091730000000     0.0428846  
H47      H      0.278190000000     0.160690000000     0.128340000000     0.048273   
H48      H      0.263500000000     0.144540000000     0.085160000000     0.0431129  
H49      H      0.163270000000     0.018510000000     0.362150000000     0.0420222  
H50      H      0.121910000000     0.013980000000     0.396630000000     0.0422891  
H51      H      0.080060000000     0.002120000000     0.373080000000     0.04838    
H52      H      0.178620000000     0.487890000000     0.350590000000     0.0486058  
H53      H      0.146790000000     0.008940000000     0.317690000000     0.0486771  
H54      H      0.136770000000     0.475570000000     0.327100000000     0.0403969  
H55      H      0.111840000000     0.980590000000     0.405890000000     0.0496397  
H56      H      0.095030000000     0.471330000000     0.361560000000     0.0407217  
H57      H      0.289150000000     0.377270000000     0.383350000000     0.0428333  
H58      H      0.252550000000     0.337570000000     0.383530000000     0.041568   
H59      H      0.208560000000     0.353820000000     0.366520000000     0.0479715  
H60      H      0.304440000000     0.385950000000     0.352180000000     0.0498453  
H61      H      0.267740000000     0.418180000000     0.366370000000     0.0502591  
H62      H      0.260370000000     0.402100000000     0.335410000000     0.042004   
H63      H      0.245260000000     0.321570000000     0.352490000000     0.0484075  
H64      H      0.224080000000     0.362600000000     0.335470000000     0.0410478  
H65      H      0.284480000000     0.986850000000     0.463150000000     0.041338   
H66      H      0.242180000000     0.021730000000     0.967660000000     0.0409833  
H67      H      0.201350000000     0.498000000000     0.983270000000     0.0480871  
H68      H      0.300880000000     0.976810000000     0.493380000000     0.0488827  
H69      H      0.268450000000     0.442160000000     0.475320000000     0.049761   
H70      H      0.259690000000     0.453410000000     0.507980000000     0.0421355  
H71      H      0.233800000000     0.032750000000     0.000470000000     0.0499652  
H72      H      0.218930000000     0.487680000000     0.012820000000     0.0418392  
H73      H      0.476590000000     0.344480000000     0.115740000000     0.0423701  
H74      H      0.020530000000     0.355120000000     0.146080000000     0.0428264  
H75      H      0.058850000000     0.368670000000     0.118160000000     0.0489615  
H76      H      0.457770000000     0.372800000000     0.103340000000     0.048595   
H77      H      0.488460000000     0.351460000000     0.069540000000     0.04912    
H78      H      0.496150000000     0.386200000000     0.075490000000     0.0404918  
H79      H      0.528140000000     0.389900000000     0.152000000000     0.0493925  
H80      H      0.539870000000     0.396910000000     0.105750000000     0.0407314  
H81      H      0.161580000000     0.335180000000     0.480320000000     0.0421689  
H82      H      0.117810000000     0.344080000000     0.451070000000     0.0428087  
H83      H      0.080930000000     0.362740000000     0.478160000000     0.04927    
H84      H      0.182720000000     0.363430000000     0.488880000000     0.0488855  
H85      H      0.152550000000     0.347950000000     0.026040000000     0.0489903  
H86      H      0.146260000000     0.382140000000     0.016490000000     0.0408612  
H87      H      0.111080000000     0.378060000000     0.440980000000     0.0495662  
H88      H      0.101640000000     0.391340000000     0.986560000000     0.0409073  
H89      H      0.126190000000     0.213410000000     0.084640000000     0.0404702  
H90      H      0.096060000000     0.227490000000     0.126410000000     0.041094   
H91      H      0.125940000000     0.242710000000     0.161920000000     0.0484271  
H92      H      0.139530000000     0.240020000000     0.064430000000     0.0487667  
H93      H      0.174590000000     0.219580000000     0.094710000000     0.0484057  
H94      H      0.169810000000     0.254960000000     0.099690000000     0.042808   
H95      H      0.090710000000     0.262780000000     0.131710000000     0.0487202  
H96      H      0.139130000000     0.269510000000     0.141840000000     0.0428009  
H97      H      0.474610000000     0.093360000000     0.369360000000     0.0420642  
H98      H      0.018040000000     0.105230000000     0.399520000000     0.0419077  
H99      H      0.055090000000     0.121040000000     0.371350000000     0.0487329  
H100     H      0.453610000000     0.120930000000     0.358560000000     0.0502907  
H101     H      0.484490000000     0.103420000000     0.323120000000     0.0497525  
H102     H      0.490700000000     0.138130000000     0.330820000000     0.0414762  
H103     H      0.024070000000     0.140090000000     0.406420000000     0.0490412  
H104     H      0.034920000000     0.149090000000     0.360400000000     0.0406989  
H105     H      0.347720000000     0.107850000000     0.452730000000     0.0399392  
H106     H      0.391110000000     0.079740000000     0.965190000000     0.040206   
H107     H      0.426550000000     0.108640000000     0.984010000000     0.0481577  
H108     H      0.324720000000     0.117690000000     0.478760000000     0.0489768  
H109     H      0.355140000000     0.155080000000     0.463070000000     0.0484244  
H110     H      0.359370000000     0.147560000000     0.497530000000     0.043584   
H111     H      0.396210000000     0.071150000000     0.999350000000     0.049117   
H112     H      0.404290000000     0.118180000000     0.010720000000     0.043141   
H113     H      0.361510000000     0.253580000000     0.391340000000     0.042372   
H114     H      0.367420000000     0.217330000000     0.351120000000     0.0432999  
H115     H      0.386470000000     0.240280000000     0.312650000000     0.0501084  
H116     H      0.392500000000     0.262650000000     0.408410000000     0.0484849  
H117     H      0.376860000000     0.297440000000     0.375840000000     0.0484407  
H118     H      0.410710000000     0.284660000000     0.369220000000     0.0404153  
H119     H      0.401740000000     0.205520000000     0.345260000000     0.0497462  
H120     H      0.416490000000     0.249930000000     0.331010000000     0.0403957  
H121     H      0.471050000000     0.260200000000     0.500980000000     0.0427167  
H122     H      0.504290000000     0.269550000000     0.459730000000     0.0421146  
H123     H      0.051370000000     0.258070000000     0.471800000000     0.0492994  
H124     H      0.461680000000     0.225900000000     0.007130000000     0.0491479  
H125     H      0.497890000000     0.243040000000     0.037980000000     0.0489092  
H126     H      0.508850000000     0.214560000000     0.018910000000     0.0411366  
H127     H      0.015150000000     0.240840000000     0.440940000000     0.0487165  
H128     H      0.041810000000     0.223830000000     0.978110000000     0.0417294  
H129     H      0.472660000000     0.022960000000     0.737490000000     0.0425095  
H130     H      0.012910000000     0.522410000000     0.701980000000     0.0426762  
H131     H      0.055400000000     0.508770000000     0.723430000000     0.0492987  
H132     H      0.457400000000     0.991310000000     0.746090000000     0.0488125  
H133     H      0.489780000000     0.008370000000     0.780500000000     0.050077   
H134     H      0.499920000000     0.976460000000     0.767160000000     0.0406321  
H135     H      0.023110000000     0.490300000000     0.689130000000     0.0497847  
H136     H      0.041150000000     0.476640000000     0.731900000000     0.0410093  
H137     H      0.350030000000     0.377740000000     0.713630000000     0.0419778  
H138     H      0.389280000000     0.340370000000     0.712770000000     0.0411147  
H139     H      0.432990000000     0.360010000000     0.726440000000     0.0476853  
H140     H      0.336290000000     0.386790000000     0.745350000000     0.0493649  
H141     H      0.369740000000     0.420510000000     0.727430000000     0.0496683  
H142     H      0.379960000000     0.406580000000     0.758650000000     0.041862   
H143     H      0.399490000000     0.326250000000     0.743930000000     0.0482999  
H144     H      0.418960000000     0.369090000000     0.758050000000     0.0406873  
H145     H      0.164180000000     0.108540000000     0.749900000000     0.0430693  
H146     H      0.127550000000     0.103180000000     0.708810000000     0.043384   
H147     H      0.081820000000     0.114050000000     0.725000000000     0.0487249  
H148     H      0.173750000000     0.142360000000     0.757980000000     0.0496787  
H149     H      0.139190000000     0.122720000000     0.789170000000     0.0491421  
H150     H      0.127520000000     0.152670000000     0.772900000000     0.0399979  
H151     H      0.116450000000     0.134050000000     0.693900000000     0.0485461  
H152     H      0.092430000000     0.147430000000     0.733840000000     0.0401321  
H153     H      0.273210000000     0.260620000000     0.705100000000     0.0411477  
H154     H      0.287400000000     0.218110000000     0.735310000000     0.0417842  
H155     H      0.278750000000     0.228630000000     0.781610000000     0.0495192  
H156     H      0.237150000000     0.265420000000     0.699280000000     0.0487451  
H157     H      0.256510000000     0.296540000000     0.733480000000     0.0481904  
H158     H      0.229160000000     0.275710000000     0.745630000000     0.0413064  
H159     H      0.259730000000     0.197560000000     0.747280000000     0.0500577  
H160     H      0.242830000000     0.233860000000     0.775140000000     0.0422165  
H161     H      0.345670000000     0.488250000000     0.632360000000     0.0410139  
H162     H      0.382010000000     0.028030000000     0.633440000000     0.04017    
H163     H      0.426910000000     0.011600000000     0.619300000000     0.0479715  
H164     H      0.332140000000     0.478710000000     0.600700000000     0.0489479  
H165     H      0.368060000000     0.447040000000     0.617720000000     0.0496679  
H166     H      0.376940000000     0.462060000000     0.586620000000     0.0424139  
H167     H      0.390970000000     0.043310000000     0.602450000000     0.0491633  
H168     H      0.413430000000     0.002160000000     0.587580000000     0.0422802  
H169     H      0.253940000000     0.089280000000     0.643610000000     0.0398995  
H170     H      0.290730000000     0.127980000000     0.637230000000     0.0400728  
H171     H      0.298810000000     0.135440000000     0.590350000000     0.0487662  
H172     H      0.218430000000     0.097810000000     0.638760000000     0.0481248  
H173     H      0.238990000000     0.072670000000     0.600740000000     0.0493776  
H174     H      0.225960000000     0.105130000000     0.591730000000     0.042891   
H175     H      0.278190000000     0.160690000000     0.628340000000     0.0482757  
H176     H      0.263500000000     0.144540000000     0.585160000000     0.0431212  
H177     H      0.163270000000     0.018510000000     0.862150000000     0.0420242  
H178     H      0.121910000000     0.013980000000     0.896630000000     0.0422934  
H179     H      0.080060000000     0.002120000000     0.873080000000     0.0483825  
H180     H      0.178620000000     0.487890000000     0.850590000000     0.0486062  
H181     H      0.146790000000     0.008940000000     0.817690000000     0.0486774  
H182     H      0.136770000000     0.475570000000     0.827100000000     0.0403971  
H183     H      0.111840000000     0.980590000000     0.905890000000     0.0496441  
H184     H      0.095030000000     0.471330000000     0.861560000000     0.0407231  
H185     H      0.289150000000     0.377270000000     0.883350000000     0.0428367  
H186     H      0.252550000000     0.337570000000     0.883530000000     0.0415713  
H187     H      0.208560000000     0.353820000000     0.866520000000     0.0479724  
H188     H      0.304440000000     0.385950000000     0.852180000000     0.0498467  
H189     H      0.267740000000     0.418180000000     0.866370000000     0.0502601  
H190     H      0.260370000000     0.402100000000     0.835410000000     0.0420036  
H191     H      0.245260000000     0.321570000000     0.852490000000     0.0484089  
H192     H      0.224080000000     0.362600000000     0.835470000000     0.0410475  
H193     H      0.284480000000     0.986850000000     0.963150000000     0.0413486  
H194     H      0.242180000000     0.021730000000     0.467660000000     0.0409881  
H195     H      0.201350000000     0.498000000000     0.483270000000     0.0480858  
H196     H      0.300880000000     0.976810000000     0.993380000000     0.0489135  
H197     H      0.268450000000     0.442160000000     0.975320000000     0.0497511  
H198     H      0.259690000000     0.453410000000     0.007980000000     0.042061   
H199     H      0.233800000000     0.032750000000     0.500470000000     0.0500299  
H200     H      0.218930000000     0.487680000000     0.512820000000     0.0419024  
H201     H      0.476590000000     0.344480000000     0.615740000000     0.0423718  
H202     H      0.020530000000     0.355120000000     0.646080000000     0.0428197  
H203     H      0.058850000000     0.368670000000     0.618160000000     0.0489837  
H204     H      0.457770000000     0.372800000000     0.603340000000     0.0486005  
H205     H      0.488460000000     0.351460000000     0.569540000000     0.049129   
H206     H      0.496150000000     0.386200000000     0.575490000000     0.0405022  
H207     H      0.528140000000     0.389900000000     0.652000000000     0.049386   
H208     H      0.539870000000     0.396910000000     0.605750000000     0.0407556  
H209     H      0.161580000000     0.335180000000     0.980320000000     0.04217    
H210     H      0.117810000000     0.344080000000     0.951070000000     0.0428182  
H211     H      0.080930000000     0.362740000000     0.978160000000     0.0492841  
H212     H      0.182720000000     0.363430000000     0.988880000000     0.0488882  
H213     H      0.152550000000     0.347950000000     0.526040000000     0.0489885  
H214     H      0.146260000000     0.382140000000     0.516490000000     0.0408656  
H215     H      0.111080000000     0.378060000000     0.940980000000     0.04957    
H216     H      0.101640000000     0.391340000000     0.486560000000     0.0408942  
H217     H      0.126190000000     0.213410000000     0.584640000000     0.0404773  
H218     H      0.096060000000     0.227490000000     0.626410000000     0.0410962  
H219     H      0.125940000000     0.242710000000     0.661920000000     0.048427   
H220     H      0.139530000000     0.240020000000     0.564430000000     0.0487773  
H221     H      0.174590000000     0.219580000000     0.594710000000     0.0484118  
H222     H      0.169810000000     0.254960000000     0.599690000000     0.0428118  
H223     H      0.090710000000     0.262780000000     0.631710000000     0.0487204  
H224     H      0.139130000000     0.269510000000     0.641840000000     0.0428006  
H225     H      0.474610000000     0.093360000000     0.869360000000     0.0420688  
H226     H      0.018040000000     0.105230000000     0.899520000000     0.0419074  
H227     H      0.055090000000     0.121040000000     0.871350000000     0.0487457  
H228     H      0.453610000000     0.120930000000     0.858560000000     0.050295   
H229     H      0.484490000000     0.103420000000     0.823120000000     0.0497452  
H230     H      0.490700000000     0.138130000000     0.830820000000     0.0414693  
H231     H      0.024070000000     0.140090000000     0.906420000000     0.0490428  
H232     H      0.034920000000     0.149090000000     0.860400000000     0.0407132  
H233     H      0.347720000000     0.107850000000     0.952730000000     0.0399444  
H234     H      0.391110000000     0.079740000000     0.465190000000     0.0401946  
H235     H      0.426550000000     0.108640000000     0.484010000000     0.0481657  
H236     H      0.324720000000     0.117690000000     0.978760000000     0.0489943  
H237     H      0.355140000000     0.155080000000     0.963070000000     0.0484294  
H238     H      0.359370000000     0.147560000000     0.997530000000     0.0436006  
H239     H      0.396210000000     0.071150000000     0.499350000000     0.0490847  
H240     H      0.404290000000     0.118180000000     0.510720000000     0.0432204  
H241     H      0.361510000000     0.253580000000     0.891340000000     0.0423851  
H242     H      0.367420000000     0.217330000000     0.851120000000     0.0433012  
H243     H      0.386470000000     0.240280000000     0.812650000000     0.0501076  
H244     H      0.392500000000     0.262650000000     0.908410000000     0.0485005  
H245     H      0.376860000000     0.297440000000     0.875840000000     0.0484089  
H246     H      0.410710000000     0.284660000000     0.869220000000     0.0403842  
H247     H      0.401740000000     0.205520000000     0.845260000000     0.049747   
H248     H      0.416490000000     0.249930000000     0.831010000000     0.0403945  
H249     H      0.471050000000     0.260200000000     0.000980000000     0.0426117  
H250     H      0.504290000000     0.269550000000     0.959730000000     0.0421283  
H251     H      0.051370000000     0.258070000000     0.971800000000     0.0493074  
H252     H      0.461680000000     0.225900000000     0.507130000000     0.0492543  
H253     H      0.497890000000     0.243040000000     0.537980000000     0.0488884  
H254     H      0.508850000000     0.214560000000     0.518910000000     0.041135   
H255     H      0.015150000000     0.240840000000     0.940940000000     0.0487192  
H256     H      0.041810000000     0.223830000000     0.478110000000     0.0417223  
H257     H      0.472660000000     0.522960000000     0.237490000000     0.0425059  
H258     H      0.012910000000     0.022410000000     0.201980000000     0.042654   
H259     H      0.055400000000     0.008770000000     0.223430000000     0.0493553  
H260     H      0.457400000000     0.491310000000     0.246090000000     0.0488547  
H261     H      0.489780000000     0.508370000000     0.280500000000     0.0500411  
H262     H      0.499920000000     0.476460000000     0.267160000000     0.0406397  
H263     H      0.023110000000     0.990300000000     0.189130000000     0.0497197  
H264     H      0.041150000000     0.976640000000     0.231900000000     0.0410245  
H265     H      0.350030000000     0.877740000000     0.213630000000     0.0419763  
H266     H      0.389280000000     0.840360000000     0.212770000000     0.0410665  
H267     H      0.432990000000     0.860010000000     0.226440000000     0.0477065  
H268     H      0.336290000000     0.886790000000     0.245350000000     0.0493596  
H269     H      0.369740000000     0.920500000000     0.227430000000     0.049674   
H270     H      0.379960000000     0.906580000000     0.258650000000     0.0418613  
H271     H      0.399490000000     0.826250000000     0.243930000000     0.0482559  
H272     H      0.418960000000     0.869090000000     0.258050000000     0.0407091  
H273     H      0.164180000000     0.608540000000     0.249910000000     0.0430607  
H274     H      0.127550000000     0.603180000000     0.208810000000     0.0433823  
H275     H      0.081820000000     0.614050000000     0.225000000000     0.0487146  
H276     H      0.173750000000     0.642360000000     0.257980000000     0.0496763  
H277     H      0.139190000000     0.622720000000     0.289170000000     0.0491346  
H278     H      0.127520000000     0.652670000000     0.272900000000     0.0399951  
H279     H      0.116450000000     0.634050000000     0.193900000000     0.0485462  
H280     H      0.092430000000     0.647430000000     0.233840000000     0.0401292  
H281     H      0.273210000000     0.760620000000     0.205100000000     0.0411403  
H282     H      0.287400000000     0.718110000000     0.235310000000     0.0417791  
H283     H      0.278750000000     0.728640000000     0.281610000000     0.0495425  
H284     H      0.237150000000     0.765420000000     0.199280000000     0.0487377  
H285     H      0.256510000000     0.796550000000     0.233480000000     0.0482062  
H286     H      0.229160000000     0.775710000000     0.245630000000     0.0413239  
H287     H      0.259730000000     0.697560000000     0.247280000000     0.0500543  
H288     H      0.242830000000     0.733860000000     0.275140000000     0.0422231  
H289     H      0.345670000000     0.988260000000     0.132360000000     0.0410332  
H290     H      0.382010000000     0.528030000000     0.133440000000     0.0401608  
H291     H      0.426910000000     0.511600000000     0.119300000000     0.0479613  
H292     H      0.332140000000     0.978710000000     0.100700000000     0.0489532  
H293     H      0.368060000000     0.947040000000     0.117720000000     0.0496534  
H294     H      0.376940000000     0.962060000000     0.086620000000     0.0423847  
H295     H      0.390970000000     0.543310000000     0.102450000000     0.0491532  
H296     H      0.413430000000     0.502160000000     0.087580000000     0.0422653  
H297     H      0.253940000000     0.589280000000     0.143610000000     0.0398966  
H298     H      0.290730000000     0.627980000000     0.137230000000     0.0400704  
H299     H      0.298810000000     0.635440000000     0.090350000000     0.0487585  
H300     H      0.218430000000     0.597810000000     0.138760000000     0.0481222  
H301     H      0.238990000000     0.572670000000     0.100740000000     0.0493711  
H302     H      0.225960000000     0.605130000000     0.091730000000     0.0428849  
H303     H      0.278190000000     0.660690000000     0.128340000000     0.0482723  
H304     H      0.263500000000     0.644540000000     0.085160000000     0.0431136  
H305     H      0.163270000000     0.518510000000     0.362150000000     0.0419901  
H306     H      0.121910000000     0.513980000000     0.396630000000     0.0422569  
H307     H      0.080060000000     0.502120000000     0.373080000000     0.0483366  
H308     H      0.178620000000     0.987890000000     0.350590000000     0.0485949  
H309     H      0.146790000000     0.508940000000     0.317690000000     0.0486346  
H310     H      0.136770000000     0.975570000000     0.327100000000     0.0404053  
H311     H      0.111840000000     0.480600000000     0.405890000000     0.0496433  
H312     H      0.095030000000     0.971330000000     0.361560000000     0.0407286  
H313     H      0.289150000000     0.877270000000     0.383350000000     0.0428294  
H314     H      0.252550000000     0.837570000000     0.383530000000     0.0415643  
H315     H      0.208560000000     0.853820000000     0.366520000000     0.0479717  
H316     H      0.304440000000     0.885950000000     0.352180000000     0.0498305  
H317     H      0.267740000000     0.918180000000     0.366370000000     0.0502551  
H318     H      0.260370000000     0.902100000000     0.335410000000     0.0419999  
H319     H      0.245260000000     0.821570000000     0.352490000000     0.0484009  
H320     H      0.224080000000     0.862600000000     0.335470000000     0.0410471  
H321     H      0.284480000000     0.486850000000     0.463150000000     0.0413442  
H322     H      0.242180000000     0.521730000000     0.967660000000     0.0409791  
H323     H      0.201350000000     0.998000000000     0.983270000000     0.0480793  
H324     H      0.300880000000     0.476810000000     0.493380000000     0.0488877  
H325     H      0.268450000000     0.942150000000     0.475320000000     0.0497426  
H326     H      0.259690000000     0.953410000000     0.507980000000     0.042116   
H327     H      0.233800000000     0.532750000000     0.000470000000     0.0499663  
H328     H      0.218930000000     0.987680000000     0.012820000000     0.0418321  
H329     H      0.476590000000     0.844470000000     0.115740000000     0.0423471  
H330     H      0.020530000000     0.855120000000     0.146080000000     0.0428312  
H331     H      0.058850000000     0.868670000000     0.118160000000     0.0489588  
H332     H      0.457770000000     0.872800000000     0.103340000000     0.0485748  
H333     H      0.488460000000     0.851460000000     0.069540000000     0.0491245  
H334     H      0.496150000000     0.886200000000     0.075490000000     0.0404901  
H335     H      0.528140000000     0.889900000000     0.152000000000     0.0493845  
H336     H      0.539870000000     0.896910000000     0.105750000000     0.0407227  
H337     H      0.161580000000     0.835180000000     0.480320000000     0.0421664  
H338     H      0.117810000000     0.844080000000     0.451070000000     0.0428081  
H339     H      0.080930000000     0.862740000000     0.478160000000     0.0492675  
H340     H      0.182720000000     0.863430000000     0.488880000000     0.0488818  
H341     H      0.152550000000     0.847950000000     0.026040000000     0.0489956  
H342     H      0.146260000000     0.882140000000     0.016490000000     0.040869   
H343     H      0.111080000000     0.878060000000     0.440980000000     0.0495614  
H344     H      0.101640000000     0.891340000000     0.986560000000     0.0409021  
H345     H      0.126190000000     0.713410000000     0.084640000000     0.040473   
H346     H      0.096060000000     0.727500000000     0.126410000000     0.0411128  
H347     H      0.125940000000     0.742710000000     0.161920000000     0.0484263  
H348     H      0.139530000000     0.740020000000     0.064430000000     0.0487664  
H349     H      0.174590000000     0.719580000000     0.094710000000     0.0484053  
H350     H      0.169810000000     0.754960000000     0.099690000000     0.0428063  
H351     H      0.090710000000     0.762780000000     0.131710000000     0.0487284  
H352     H      0.139130000000     0.769510000000     0.141840000000     0.0427974  
H353     H      0.474610000000     0.593360000000     0.369360000000     0.0420613  
H354     H      0.018040000000     0.605230000000     0.399520000000     0.0419222  
H355     H      0.055090000000     0.621040000000     0.371350000000     0.0487298  
H356     H      0.453610000000     0.620930000000     0.358560000000     0.0502818  
H357     H      0.484490000000     0.603420000000     0.323120000000     0.0497529  
H358     H      0.490700000000     0.638130000000     0.330820000000     0.0414745  
H359     H      0.024070000000     0.640090000000     0.406420000000     0.0490436  
H360     H      0.034920000000     0.649090000000     0.360400000000     0.0406928  
H361     H      0.347720000000     0.607850000000     0.452730000000     0.0399366  
H362     H      0.391110000000     0.579750000000     0.965190000000     0.0402153  
H363     H      0.426550000000     0.608640000000     0.984010000000     0.0481548  
H364     H      0.324720000000     0.617690000000     0.478760000000     0.048976   
H365     H      0.355140000000     0.655080000000     0.463070000000     0.0484238  
H366     H      0.359370000000     0.647560000000     0.497530000000     0.043584   
H367     H      0.396210000000     0.571150000000     0.999350000000     0.0491209  
H368     H      0.404290000000     0.618180000000     0.010720000000     0.0431397  
H369     H      0.361510000000     0.753580000000     0.391340000000     0.0423702  
H370     H      0.367420000000     0.717330000000     0.351120000000     0.043298   
H371     H      0.386470000000     0.740280000000     0.312650000000     0.05011    
H372     H      0.392500000000     0.762650000000     0.408410000000     0.0484845  
H373     H      0.376860000000     0.797440000000     0.375840000000     0.048442   
H374     H      0.410710000000     0.784660000000     0.369220000000     0.0404154  
H375     H      0.401740000000     0.705520000000     0.345260000000     0.0497452  
H376     H      0.416490000000     0.749930000000     0.331010000000     0.0403949  
H377     H      0.471050000000     0.760200000000     0.500980000000     0.0427172  
H378     H      0.504290000000     0.769550000000     0.459730000000     0.0421412  
H379     H      0.051370000000     0.758070000000     0.471800000000     0.049293   
H380     H      0.461680000000     0.725900000000     0.007130000000     0.0491482  
H381     H      0.497890000000     0.743040000000     0.037980000000     0.0489086  
H382     H      0.508850000000     0.714560000000     0.018910000000     0.0411359  
H383     H      0.015150000000     0.740830000000     0.440940000000     0.0487435  
H384     H      0.041810000000     0.723830000000     0.978110000000     0.0417215  
H385     H      0.472660000000     0.522960000000     0.737490000000     0.0425056  
H386     H      0.012910000000     0.022410000000     0.701980000000     0.0426553  
H387     H      0.055400000000     0.008770000000     0.723430000000     0.0493566  
H388     H      0.457400000000     0.491310000000     0.746090000000     0.0488542  
H389     H      0.489780000000     0.508370000000     0.780500000000     0.0500415  
H390     H      0.499920000000     0.476460000000     0.767160000000     0.0406405  
H391     H      0.023110000000     0.990300000000     0.689130000000     0.0497215  
H392     H      0.041150000000     0.976640000000     0.731900000000     0.0410252  
H393     H      0.350030000000     0.877740000000     0.713630000000     0.0419758  
H394     H      0.389280000000     0.840360000000     0.712770000000     0.0410669  
H395     H      0.432990000000     0.860010000000     0.726440000000     0.0477064  
H396     H      0.336290000000     0.886790000000     0.745350000000     0.0493592  
H397     H      0.369740000000     0.920500000000     0.727430000000     0.0496715  
H398     H      0.379960000000     0.906580000000     0.758650000000     0.0418613  
H399     H      0.399490000000     0.826250000000     0.743930000000     0.048256   
H400     H      0.418960000000     0.869090000000     0.758050000000     0.0407094  
H401     H      0.164180000000     0.608540000000     0.749900000000     0.0430678  
H402     H      0.127550000000     0.603180000000     0.708810000000     0.0433837  
H403     H      0.081820000000     0.614050000000     0.725000000000     0.0487257  
H404     H      0.173750000000     0.642360000000     0.757980000000     0.0496777  
H405     H      0.139190000000     0.622720000000     0.789170000000     0.049141   
H406     H      0.127520000000     0.652670000000     0.772900000000     0.0399973  
H407     H      0.116450000000     0.634050000000     0.693900000000     0.0485468  
H408     H      0.092430000000     0.647430000000     0.733840000000     0.0401316  
H409     H      0.273210000000     0.760620000000     0.705100000000     0.0411414  
H410     H      0.287400000000     0.718110000000     0.735310000000     0.0417793  
H411     H      0.278750000000     0.728640000000     0.781610000000     0.0495428  
H412     H      0.237150000000     0.765420000000     0.699280000000     0.0487385  
H413     H      0.256510000000     0.796550000000     0.733480000000     0.0482063  
H414     H      0.229160000000     0.775710000000     0.745630000000     0.0413237  
H415     H      0.259730000000     0.697560000000     0.747280000000     0.0500543  
H416     H      0.242830000000     0.733860000000     0.775140000000     0.0422234  
H417     H      0.345670000000     0.988260000000     0.632360000000     0.0410111  
H418     H      0.382010000000     0.528030000000     0.633440000000     0.0401584  
H419     H      0.426910000000     0.511600000000     0.619300000000     0.047965   
H420     H      0.332140000000     0.978710000000     0.600700000000     0.0489423  
H421     H      0.368060000000     0.947040000000     0.617720000000     0.0496647  
H422     H      0.376940000000     0.962060000000     0.586620000000     0.0424003  
H423     H      0.390970000000     0.543310000000     0.602450000000     0.0491597  
H424     H      0.413430000000     0.502160000000     0.587580000000     0.0422766  
H425     H      0.253940000000     0.589280000000     0.643610000000     0.0398963  
H426     H      0.290730000000     0.627980000000     0.637230000000     0.0400709  
H427     H      0.298810000000     0.635440000000     0.590350000000     0.0487658  
H428     H      0.218430000000     0.597810000000     0.638760000000     0.0481235  
H429     H      0.238990000000     0.572670000000     0.600740000000     0.0493745  
H430     H      0.225960000000     0.605130000000     0.591730000000     0.0428914  
H431     H      0.278190000000     0.660690000000     0.628340000000     0.048275   
H432     H      0.263500000000     0.644540000000     0.585160000000     0.0431219  
H433     H      0.163270000000     0.518510000000     0.862150000000     0.0419921  
H434     H      0.121910000000     0.513980000000     0.896630000000     0.0422612  
H435     H      0.080060000000     0.502120000000     0.873080000000     0.0483391  
H436     H      0.178620000000     0.987890000000     0.850590000000     0.0485953  
H437     H      0.146790000000     0.508940000000     0.817690000000     0.0486348  
H438     H      0.136770000000     0.975570000000     0.827100000000     0.0404055  
H439     H      0.111840000000     0.480600000000     0.905890000000     0.0496477  
H440     H      0.095030000000     0.971330000000     0.861560000000     0.04073    
H441     H      0.289150000000     0.877270000000     0.883350000000     0.0428328  
H442     H      0.252550000000     0.837570000000     0.883530000000     0.0415676  
H443     H      0.208560000000     0.853820000000     0.866520000000     0.0479727  
H444     H      0.304440000000     0.885950000000     0.852180000000     0.0498319  
H445     H      0.267740000000     0.918180000000     0.866370000000     0.0502561  
H446     H      0.260370000000     0.902100000000     0.835410000000     0.0419996  
H447     H      0.245260000000     0.821570000000     0.852490000000     0.0484022  
H448     H      0.224080000000     0.862600000000     0.835470000000     0.0410468  
H449     H      0.284480000000     0.486850000000     0.963150000000     0.0413548  
H450     H      0.242180000000     0.521730000000     0.467660000000     0.0409839  
H451     H      0.201350000000     0.998000000000     0.483270000000     0.0480779  
H452     H      0.300880000000     0.476810000000     0.993380000000     0.0489186  
H453     H      0.268450000000     0.942150000000     0.975320000000     0.0497327  
H454     H      0.259690000000     0.953410000000     0.007980000000     0.0420416  
H455     H      0.233800000000     0.532750000000     0.500470000000     0.050031   
H456     H      0.218930000000     0.987680000000     0.512820000000     0.041895   
H457     H      0.476590000000     0.844470000000     0.615740000000     0.0423488  
H458     H      0.020530000000     0.855120000000     0.646080000000     0.0428245  
H459     H      0.058850000000     0.868670000000     0.618160000000     0.048981   
H460     H      0.457770000000     0.872800000000     0.603340000000     0.0485802  
H461     H      0.488460000000     0.851460000000     0.569540000000     0.0491335  
H462     H      0.496150000000     0.886200000000     0.575490000000     0.0405005  
H463     H      0.528140000000     0.889900000000     0.652000000000     0.049378   
H464     H      0.539870000000     0.896910000000     0.605750000000     0.0407469  
H465     H      0.161580000000     0.835180000000     0.980320000000     0.0421675  
H466     H      0.117810000000     0.844080000000     0.951070000000     0.0428176  
H467     H      0.080930000000     0.862740000000     0.978160000000     0.0492816  
H468     H      0.182720000000     0.863430000000     0.988880000000     0.0488845  
H469     H      0.152550000000     0.847950000000     0.526040000000     0.0489939  
H470     H      0.146260000000     0.882140000000     0.516490000000     0.0408734  
H471     H      0.111080000000     0.878060000000     0.940980000000     0.0495653  
H472     H      0.101640000000     0.891340000000     0.486560000000     0.040889   
H473     H      0.126190000000     0.713410000000     0.584640000000     0.0404802  
H474     H      0.096060000000     0.727500000000     0.626410000000     0.0411151  
H475     H      0.125940000000     0.742710000000     0.661920000000     0.0484261  
H476     H      0.139530000000     0.740020000000     0.564430000000     0.048777   
H477     H      0.174590000000     0.719580000000     0.594710000000     0.0484114  
H478     H      0.169810000000     0.754960000000     0.599690000000     0.0428101  
H479     H      0.090710000000     0.762780000000     0.631710000000     0.0487286  
H480     H      0.139130000000     0.769510000000     0.641840000000     0.0427971  
H481     H      0.474610000000     0.593360000000     0.869360000000     0.042066   
H482     H      0.018040000000     0.605230000000     0.899520000000     0.0419218  
H483     H      0.055090000000     0.621040000000     0.871350000000     0.0487425  
H484     H      0.453610000000     0.620930000000     0.858560000000     0.050286   
H485     H      0.484490000000     0.603420000000     0.823120000000     0.0497456  
H486     H      0.490700000000     0.638130000000     0.830820000000     0.0414676  
H487     H      0.024070000000     0.640090000000     0.906420000000     0.0490453  
H488     H      0.034920000000     0.649090000000     0.860400000000     0.0407071  
H489     H      0.347720000000     0.607850000000     0.952730000000     0.0399417  
H490     H      0.391110000000     0.579750000000     0.465190000000     0.0402039  
H491     H      0.426550000000     0.608640000000     0.484010000000     0.0481627  
H492     H      0.324720000000     0.617690000000     0.978760000000     0.0489935  
H493     H      0.355140000000     0.655080000000     0.963070000000     0.0484289  
H494     H      0.359370000000     0.647560000000     0.997530000000     0.0436005  
H495     H      0.396210000000     0.571150000000     0.499350000000     0.0490886  
H496     H      0.404290000000     0.618180000000     0.510720000000     0.0432191  
H497     H      0.361510000000     0.753580000000     0.891340000000     0.0423833  
H498     H      0.367420000000     0.717330000000     0.851120000000     0.0432994  
H499     H      0.386470000000     0.740280000000     0.812650000000     0.0501092  
H500     H      0.392500000000     0.762650000000     0.908410000000     0.0485001  
H501     H      0.376860000000     0.797440000000     0.875840000000     0.0484101  
H502     H      0.410710000000     0.784660000000     0.869220000000     0.0403842  
H503     H      0.401740000000     0.705520000000     0.845260000000     0.0497461  
H504     H      0.416490000000     0.749930000000     0.831010000000     0.0403936  
H505     H      0.471050000000     0.760200000000     0.000980000000     0.0426123  
H506     H      0.504290000000     0.769550000000     0.959730000000     0.0421549  
H507     H      0.051370000000     0.758070000000     0.971800000000     0.049301   
H508     H      0.461680000000     0.725900000000     0.507130000000     0.0492545  
H509     H      0.497890000000     0.743040000000     0.537980000000     0.0488878  
H510     H      0.508850000000     0.714560000000     0.518910000000     0.0411343  
H511     H      0.015150000000     0.740830000000     0.940940000000     0.0487462  
H512     H      0.041810000000     0.723830000000     0.478110000000     0.0417143  
H513     H      0.972660000000     0.022960000000     0.237490000000     0.0425024  
H514     H      0.512910000000     0.522410000000     0.201980000000     0.0426666  
H515     H      0.555400000000     0.508770000000     0.223430000000     0.0493036  
H516     H      0.957400000000     0.991310000000     0.246090000000     0.0488039  
H517     H      0.989790000000     0.008370000000     0.280500000000     0.0501013  
H518     H      0.999920000000     0.976460000000     0.267160000000     0.0406412  
H519     H      0.523110000000     0.490300000000     0.189130000000     0.0497751  
H520     H      0.541150000000     0.476640000000     0.231900000000     0.0410215  
H521     H      0.850030000000     0.377740000000     0.213630000000     0.0419783  
H522     H      0.889280000000     0.340370000000     0.212770000000     0.0411203  
H523     H      0.932990000000     0.360010000000     0.226440000000     0.0476836  
H524     H      0.836290000000     0.386790000000     0.245350000000     0.0493651  
H525     H      0.869740000000     0.420510000000     0.227430000000     0.0496709  
H526     H      0.879960000000     0.406580000000     0.258650000000     0.0418618  
H527     H      0.899480000000     0.326250000000     0.243930000000     0.0483179  
H528     H      0.918960000000     0.369090000000     0.258050000000     0.0406842  
H529     H      0.664180000000     0.108540000000     0.249910000000     0.0430698  
H530     H      0.627550000000     0.103180000000     0.208810000000     0.0433698  
H531     H      0.581820000000     0.114050000000     0.225000000000     0.0487213  
H532     H      0.673750000000     0.142360000000     0.257980000000     0.0496854  
H533     H      0.639190000000     0.122720000000     0.289170000000     0.0491321  
H534     H      0.627520000000     0.152670000000     0.272900000000     0.0399944  
H535     H      0.616450000000     0.134050000000     0.193900000000     0.0485382  
H536     H      0.592430000000     0.147430000000     0.233840000000     0.0401389  
H537     H      0.773210000000     0.260620000000     0.205100000000     0.0411432  
H538     H      0.787400000000     0.218110000000     0.235310000000     0.0417862  
H539     H      0.778750000000     0.228630000000     0.281610000000     0.0495188  
H540     H      0.737150000000     0.265420000000     0.199280000000     0.0487396  
H541     H      0.756510000000     0.296540000000     0.233480000000     0.0482016  
H542     H      0.729170000000     0.275710000000     0.245630000000     0.0413292  
H543     H      0.759730000000     0.197560000000     0.247280000000     0.0500589  
H544     H      0.742830000000     0.233860000000     0.275140000000     0.0422089  
H545     H      0.845670000000     0.488250000000     0.132360000000     0.0410359  
H546     H      0.882010000000     0.028030000000     0.133440000000     0.0401726  
H547     H      0.926910000000     0.011600000000     0.119300000000     0.0479685  
H548     H      0.832140000000     0.478710000000     0.100700000000     0.0489577  
H549     H      0.868060000000     0.447040000000     0.117720000000     0.0496563  
H550     H      0.876940000000     0.462060000000     0.086620000000     0.0423976  
H551     H      0.890970000000     0.043310000000     0.102450000000     0.0491569  
H552     H      0.913430000000     0.002160000000     0.087580000000     0.0422688  
H553     H      0.753940000000     0.089280000000     0.143610000000     0.0398913  
H554     H      0.790730000000     0.127980000000     0.137230000000     0.0400659  
H555     H      0.798810000000     0.135440000000     0.090350000000     0.0487663  
H556     H      0.718430000000     0.097810000000     0.138760000000     0.0481164  
H557     H      0.738990000000     0.072670000000     0.100740000000     0.0494007  
H558     H      0.725960000000     0.105130000000     0.091730000000     0.0429173  
H559     H      0.778190000000     0.160690000000     0.128340000000     0.0482691  
H560     H      0.763500000000     0.144540000000     0.085160000000     0.0431284  
H561     H      0.663270000000     0.018510000000     0.362150000000     0.0420222  
H562     H      0.621910000000     0.013980000000     0.396630000000     0.0422905  
H563     H      0.580060000000     0.002120000000     0.373080000000     0.0483846  
H564     H      0.678620000000     0.487890000000     0.350590000000     0.0486058  
H565     H      0.646790000000     0.008940000000     0.317690000000     0.0486771  
H566     H      0.636770000000     0.475570000000     0.327100000000     0.0403981  
H567     H      0.611840000000     0.980590000000     0.405890000000     0.0496425  
H568     H      0.595030000000     0.471330000000     0.361560000000     0.0407256  
H569     H      0.789150000000     0.377270000000     0.383350000000     0.0428333  
H570     H      0.752550000000     0.337570000000     0.383530000000     0.0415716  
H571     H      0.708550000000     0.353820000000     0.366520000000     0.0479573  
H572     H      0.804440000000     0.385950000000     0.352180000000     0.0498453  
H573     H      0.767740000000     0.418180000000     0.366370000000     0.0502587  
H574     H      0.760370000000     0.402100000000     0.335410000000     0.0420031  
H575     H      0.745260000000     0.321570000000     0.352490000000     0.0484113  
H576     H      0.724080000000     0.362600000000     0.335470000000     0.0410367  
H577     H      0.784480000000     0.986850000000     0.463150000000     0.0413356  
H578     H      0.742180000000     0.021730000000     0.967660000000     0.0409846  
H579     H      0.701350000000     0.498000000000     0.983270000000     0.0480875  
H580     H      0.800880000000     0.976810000000     0.493380000000     0.0488769  
H581     H      0.768450000000     0.442160000000     0.475320000000     0.049762   
H582     H      0.759690000000     0.453410000000     0.507980000000     0.0421352  
H583     H      0.733800000000     0.032750000000     0.000470000000     0.0499605  
H584     H      0.718930000000     0.487680000000     0.012820000000     0.0418369  
H585     H      0.976590000000     0.344480000000     0.115740000000     0.0423751  
H586     H      0.520530000000     0.355120000000     0.146080000000     0.0428327  
H587     H      0.558850000000     0.368670000000     0.118160000000     0.0489593  
H588     H      0.957770000000     0.372800000000     0.103340000000     0.048596   
H589     H      0.988460000000     0.351460000000     0.069540000000     0.0491191  
H590     H      0.996140000000     0.386200000000     0.075490000000     0.040483   
H591     H      0.028140000000     0.389900000000     0.152000000000     0.0493872  
H592     H      0.039860000000     0.396910000000     0.105750000000     0.0407332  
H593     H      0.661580000000     0.335180000000     0.480320000000     0.0421671  
H594     H      0.617810000000     0.344080000000     0.451070000000     0.0427737  
H595     H      0.580930000000     0.362740000000     0.478160000000     0.0492845  
H596     H      0.682720000000     0.363430000000     0.488880000000     0.0488846  
H597     H      0.652550000000     0.347950000000     0.026040000000     0.0489909  
H598     H      0.646260000000     0.382140000000     0.016490000000     0.0408623  
H599     H      0.611080000000     0.378060000000     0.440980000000     0.0495313  
H600     H      0.601640000000     0.391340000000     0.986560000000     0.0409205  
H601     H      0.626190000000     0.213410000000     0.084640000000     0.0404741  
H602     H      0.596060000000     0.227490000000     0.126410000000     0.0411015  
H603     H      0.625940000000     0.242710000000     0.161920000000     0.0484349  
H604     H      0.639530000000     0.240020000000     0.064430000000     0.0487666  
H605     H      0.674590000000     0.219580000000     0.094710000000     0.0484115  
H606     H      0.669810000000     0.254960000000     0.099690000000     0.042808   
H607     H      0.590710000000     0.262780000000     0.131710000000     0.0487242  
H608     H      0.639130000000     0.269510000000     0.141840000000     0.0427994  
H609     H      0.974610000000     0.093360000000     0.369360000000     0.0420684  
H610     H      0.518040000000     0.105230000000     0.399520000000     0.0419136  
H611     H      0.555090000000     0.121040000000     0.371350000000     0.0487356  
H612     H      0.953610000000     0.120930000000     0.358560000000     0.0502919  
H613     H      0.984490000000     0.103420000000     0.323120000000     0.0497531  
H614     H      0.990700000000     0.138130000000     0.330820000000     0.0414758  
H615     H      0.524070000000     0.140090000000     0.406420000000     0.0490459  
H616     H      0.534920000000     0.149090000000     0.360400000000     0.0407079  
H617     H      0.847720000000     0.107850000000     0.452730000000     0.0399372  
H618     H      0.891100000000     0.079740000000     0.965190000000     0.0402164  
H619     H      0.926550000000     0.108640000000     0.984010000000     0.048158   
H620     H      0.824720000000     0.117690000000     0.478760000000     0.0489769  
H621     H      0.855140000000     0.155080000000     0.463070000000     0.0484289  
H622     H      0.859380000000     0.147560000000     0.497530000000     0.0435943  
H623     H      0.896210000000     0.071150000000     0.999350000000     0.0491209  
H624     H      0.904290000000     0.118180000000     0.010720000000     0.0431387  
H625     H      0.861510000000     0.253580000000     0.391340000000     0.0423738  
H626     H      0.867420000000     0.217330000000     0.351120000000     0.0433027  
H627     H      0.886470000000     0.240280000000     0.312650000000     0.0501037  
H628     H      0.892500000000     0.262650000000     0.408410000000     0.0484855  
H629     H      0.876860000000     0.297440000000     0.375840000000     0.0484408  
H630     H      0.910710000000     0.284660000000     0.369220000000     0.0404145  
H631     H      0.901740000000     0.205520000000     0.345260000000     0.0497466  
H632     H      0.916490000000     0.249930000000     0.331010000000     0.0403936  
H633     H      0.971050000000     0.260200000000     0.500980000000     0.0427182  
H634     H      0.004290000000     0.269550000000     0.459730000000     0.0421261  
H635     H      0.551380000000     0.258070000000     0.471800000000     0.049291   
H636     H      0.961680000000     0.225900000000     0.007130000000     0.0491426  
H637     H      0.997890000000     0.243040000000     0.037980000000     0.04894    
H638     H      0.008850000000     0.214560000000     0.018910000000     0.0411348  
H639     H      0.515150000000     0.240840000000     0.440940000000     0.0487031  
H640     H      0.541810000000     0.223830000000     0.978110000000     0.0417299  
H641     H      0.972660000000     0.022960000000     0.737490000000     0.0425021  
H642     H      0.512910000000     0.522410000000     0.701980000000     0.042668   
H643     H      0.555400000000     0.508770000000     0.723430000000     0.0493049  
H644     H      0.957400000000     0.991310000000     0.746090000000     0.0488033  
H645     H      0.989790000000     0.008370000000     0.780500000000     0.0501018  
H646     H      0.999920000000     0.976460000000     0.767160000000     0.0406421  
H647     H      0.523110000000     0.490300000000     0.689130000000     0.049777   
H648     H      0.541150000000     0.476640000000     0.731900000000     0.0410223  
H649     H      0.850030000000     0.377740000000     0.713630000000     0.0419777  
H650     H      0.889280000000     0.340370000000     0.712770000000     0.0411207  
H651     H      0.932990000000     0.360010000000     0.726440000000     0.0476836  
H652     H      0.836290000000     0.386790000000     0.745350000000     0.0493648  
H653     H      0.869740000000     0.420510000000     0.727430000000     0.0496683  
H654     H      0.879960000000     0.406580000000     0.758650000000     0.0418619  
H655     H      0.899480000000     0.326250000000     0.743930000000     0.0483181  
H656     H      0.918960000000     0.369090000000     0.758050000000     0.0406846  
H657     H      0.664180000000     0.108540000000     0.749900000000     0.0430769  
H658     H      0.627550000000     0.103180000000     0.708810000000     0.0433712  
H659     H      0.581820000000     0.114050000000     0.725000000000     0.0487323  
H660     H      0.673750000000     0.142360000000     0.757980000000     0.0496868  
H661     H      0.639190000000     0.122720000000     0.789170000000     0.0491385  
H662     H      0.627520000000     0.152670000000     0.772900000000     0.0399965  
H663     H      0.616450000000     0.134050000000     0.693900000000     0.0485388  
H664     H      0.592430000000     0.147430000000     0.733840000000     0.0401413  
H665     H      0.773210000000     0.260620000000     0.705100000000     0.0411443  
H666     H      0.787400000000     0.218110000000     0.735310000000     0.0417864  
H667     H      0.778750000000     0.228630000000     0.781610000000     0.0495191  
H668     H      0.737150000000     0.265420000000     0.699280000000     0.0487404  
H669     H      0.756510000000     0.296540000000     0.733480000000     0.0482017  
H670     H      0.729170000000     0.275710000000     0.745630000000     0.0413291  
H671     H      0.759730000000     0.197560000000     0.747280000000     0.0500589  
H672     H      0.742830000000     0.233860000000     0.775140000000     0.0422092  
H673     H      0.845670000000     0.488250000000     0.632360000000     0.0410138  
H674     H      0.882010000000     0.028030000000     0.633440000000     0.0401702  
H675     H      0.926910000000     0.011600000000     0.619300000000     0.0479722  
H676     H      0.832140000000     0.478710000000     0.600700000000     0.0489469  
H677     H      0.868060000000     0.447040000000     0.617720000000     0.0496677  
H678     H      0.876940000000     0.462060000000     0.586620000000     0.0424134  
H679     H      0.890970000000     0.043310000000     0.602450000000     0.0491633  
H680     H      0.913430000000     0.002160000000     0.587580000000     0.0422801  
H681     H      0.753940000000     0.089280000000     0.643610000000     0.039891   
H682     H      0.790730000000     0.127980000000     0.637230000000     0.0400664  
H683     H      0.798810000000     0.135440000000     0.590350000000     0.0487735  
H684     H      0.718430000000     0.097810000000     0.638760000000     0.0481177  
H685     H      0.738990000000     0.072670000000     0.600740000000     0.0494042  
H686     H      0.725960000000     0.105130000000     0.591730000000     0.0429238  
H687     H      0.778190000000     0.160690000000     0.628340000000     0.0482719  
H688     H      0.763500000000     0.144540000000     0.585160000000     0.0431367  
H689     H      0.663270000000     0.018510000000     0.862150000000     0.0420242  
H690     H      0.621910000000     0.013980000000     0.896630000000     0.0422948  
H691     H      0.580060000000     0.002120000000     0.873080000000     0.0483872  
H692     H      0.678620000000     0.487890000000     0.850590000000     0.0486062  
H693     H      0.646790000000     0.008940000000     0.817690000000     0.0486774  
H694     H      0.636770000000     0.475570000000     0.827100000000     0.0403982  
H695     H      0.611840000000     0.980590000000     0.905890000000     0.0496468  
H696     H      0.595030000000     0.471330000000     0.861560000000     0.040727   
H697     H      0.789150000000     0.377270000000     0.883350000000     0.0428368  
H698     H      0.752550000000     0.337570000000     0.883530000000     0.041575   
H699     H      0.708550000000     0.353820000000     0.866520000000     0.0479583  
H700     H      0.804440000000     0.385950000000     0.852180000000     0.0498467  
H701     H      0.767740000000     0.418180000000     0.866370000000     0.0502597  
H702     H      0.760370000000     0.402100000000     0.835410000000     0.0420028  
H703     H      0.745260000000     0.321570000000     0.852490000000     0.0484126  
H704     H      0.724080000000     0.362600000000     0.835470000000     0.0410364  
H705     H      0.784480000000     0.986850000000     0.963150000000     0.0413462  
H706     H      0.742180000000     0.021730000000     0.467660000000     0.0409895  
H707     H      0.701350000000     0.498000000000     0.483270000000     0.0480862  
H708     H      0.800880000000     0.976810000000     0.993380000000     0.0489079  
H709     H      0.768450000000     0.442160000000     0.975320000000     0.049752   
H710     H      0.759690000000     0.453410000000     0.007980000000     0.0420604  
H711     H      0.733800000000     0.032750000000     0.500470000000     0.0500254  
H712     H      0.718930000000     0.487680000000     0.512820000000     0.0419003  
H713     H      0.976590000000     0.344480000000     0.615740000000     0.0423768  
H714     H      0.520530000000     0.355120000000     0.646080000000     0.0428261  
H715     H      0.558850000000     0.368670000000     0.618160000000     0.0489815  
H716     H      0.957770000000     0.372800000000     0.603340000000     0.0486015  
H717     H      0.988460000000     0.351460000000     0.569540000000     0.0491281  
H718     H      0.996140000000     0.386200000000     0.575490000000     0.0404935  
H719     H      0.028140000000     0.389900000000     0.652000000000     0.0493806  
H720     H      0.039860000000     0.396910000000     0.605750000000     0.0407573  
H721     H      0.661580000000     0.335180000000     0.980320000000     0.0421683  
H722     H      0.617810000000     0.344080000000     0.951070000000     0.0427832  
H723     H      0.580930000000     0.362740000000     0.978160000000     0.0492986  
H724     H      0.682720000000     0.363430000000     0.988880000000     0.0488873  
H725     H      0.652550000000     0.347950000000     0.526040000000     0.0489892  
H726     H      0.646260000000     0.382140000000     0.516490000000     0.0408668  
H727     H      0.611080000000     0.378060000000     0.940980000000     0.0495352  
H728     H      0.601640000000     0.391340000000     0.486560000000     0.0409073  
H729     H      0.626190000000     0.213410000000     0.584640000000     0.0404813  
H730     H      0.596060000000     0.227490000000     0.626410000000     0.0411037  
H731     H      0.625940000000     0.242710000000     0.661920000000     0.0484348  
H732     H      0.639530000000     0.240020000000     0.564430000000     0.0487773  
H733     H      0.674590000000     0.219580000000     0.594710000000     0.0484176  
H734     H      0.669810000000     0.254960000000     0.599690000000     0.0428119  
H735     H      0.590710000000     0.262780000000     0.631710000000     0.0487245  
H736     H      0.639130000000     0.269510000000     0.641840000000     0.0427991  
H737     H      0.974610000000     0.093360000000     0.869360000000     0.0420731  
H738     H      0.518040000000     0.105230000000     0.899520000000     0.0419133  
H739     H      0.555090000000     0.121040000000     0.871350000000     0.0487484  
H740     H      0.953610000000     0.120930000000     0.858560000000     0.0502962  
H741     H      0.984490000000     0.103420000000     0.823120000000     0.0497458  
H742     H      0.990700000000     0.138130000000     0.830820000000     0.041469   
H743     H      0.524070000000     0.140090000000     0.906420000000     0.0490476  
H744     H      0.534920000000     0.149090000000     0.860400000000     0.0407222  
H745     H      0.847720000000     0.107850000000     0.952730000000     0.0399424  
H746     H      0.891100000000     0.079740000000     0.465190000000     0.0402049  
H747     H      0.926550000000     0.108640000000     0.484010000000     0.0481659  
H748     H      0.824720000000     0.117690000000     0.978760000000     0.0489945  
H749     H      0.855140000000     0.155080000000     0.963070000000     0.048434   
H750     H      0.859380000000     0.147560000000     0.997530000000     0.043611   
H751     H      0.896210000000     0.071150000000     0.499350000000     0.0490884  
H752     H      0.904290000000     0.118180000000     0.510720000000     0.0432183  
H753     H      0.861510000000     0.253580000000     0.891340000000     0.0423869  
H754     H      0.867420000000     0.217330000000     0.851120000000     0.0433041  
H755     H      0.886470000000     0.240280000000     0.812650000000     0.050103   
H756     H      0.892500000000     0.262650000000     0.908410000000     0.0485011  
H757     H      0.876860000000     0.297440000000     0.875840000000     0.048409   
H758     H      0.910710000000     0.284660000000     0.869220000000     0.0403834  
H759     H      0.901740000000     0.205520000000     0.845260000000     0.0497475  
H760     H      0.916490000000     0.249930000000     0.831010000000     0.0403924  
H761     H      0.971050000000     0.260200000000     0.000980000000     0.0426128  
H762     H      0.004290000000     0.269550000000     0.959730000000     0.0421398  
H763     H      0.551380000000     0.258070000000     0.971800000000     0.0492991  
H764     H      0.961680000000     0.225900000000     0.507130000000     0.0492493  
H765     H      0.997890000000     0.243040000000     0.537980000000     0.0489195  
H766     H      0.008850000000     0.214560000000     0.518910000000     0.0411332  
H767     H      0.515150000000     0.240840000000     0.940940000000     0.0487058  
H768     H      0.541810000000     0.223830000000     0.478110000000     0.0417227  
H769     H      0.972660000000     0.522960000000     0.237490000000     0.0424984  
H770     H      0.512910000000     0.022410000000     0.201980000000     0.0426459  
H771     H      0.555400000000     0.008770000000     0.223430000000     0.0493612  
H772     H      0.957400000000     0.491310000000     0.246090000000     0.0488452  
H773     H      0.989790000000     0.508370000000     0.280500000000     0.0500662  
H774     H      0.999920000000     0.476460000000     0.267160000000     0.0406497  
H775     H      0.523110000000     0.990300000000     0.189130000000     0.0497122  
H776     H      0.541150000000     0.976640000000     0.231900000000     0.0410374  
H777     H      0.850030000000     0.877740000000     0.213630000000     0.0419763  
H778     H      0.889280000000     0.840360000000     0.212770000000     0.0410726  
H779     H      0.932990000000     0.860010000000     0.226440000000     0.0477048  
H780     H      0.836290000000     0.886790000000     0.245350000000     0.0493595  
H781     H      0.869740000000     0.920500000000     0.227430000000     0.0496741  
H782     H      0.879960000000     0.906580000000     0.258650000000     0.0418611  
H783     H      0.899480000000     0.826250000000     0.243930000000     0.048274   
H784     H      0.918960000000     0.869090000000     0.258050000000     0.0407064  
H785     H      0.664180000000     0.608540000000     0.249910000000     0.0430683  
H786     H      0.627550000000     0.603180000000     0.208810000000     0.0433695  
H787     H      0.581820000000     0.614050000000     0.225000000000     0.048722   
H788     H      0.673750000000     0.642360000000     0.257980000000     0.0496844  
H789     H      0.639190000000     0.622720000000     0.289170000000     0.0491311  
H790     H      0.627520000000     0.652670000000     0.272900000000     0.0399938  
H791     H      0.616450000000     0.634050000000     0.193900000000     0.0485389  
H792     H      0.592430000000     0.647430000000     0.233840000000     0.0401384  
H793     H      0.773210000000     0.760620000000     0.205100000000     0.041137   
H794     H      0.787400000000     0.718110000000     0.235310000000     0.0417813  
H795     H      0.778750000000     0.728640000000     0.281610000000     0.0495424  
H796     H      0.737150000000     0.765420000000     0.199280000000     0.048733   
H797     H      0.756510000000     0.796550000000     0.233480000000     0.0482174  
H798     H      0.729170000000     0.775710000000     0.245630000000     0.0413466  
H799     H      0.759730000000     0.697560000000     0.247280000000     0.0500555  
H800     H      0.742830000000     0.733860000000     0.275140000000     0.0422158  
H801     H      0.845670000000     0.988260000000     0.132360000000     0.0410331  
H802     H      0.882010000000     0.528030000000     0.133440000000     0.0401611  
H803     H      0.926910000000     0.511600000000     0.119300000000     0.0479621  
H804     H      0.832140000000     0.978710000000     0.100700000000     0.0489522  
H805     H      0.868060000000     0.947040000000     0.117720000000     0.0496532  
H806     H      0.876940000000     0.962060000000     0.086620000000     0.0423842  
H807     H      0.890970000000     0.543310000000     0.102450000000     0.0491532  
H808     H      0.913430000000     0.502160000000     0.087580000000     0.0422652  
H809     H      0.753940000000     0.589280000000     0.143610000000     0.0398881  
H810     H      0.790730000000     0.627980000000     0.137230000000     0.0400639  
H811     H      0.798810000000     0.635440000000     0.090350000000     0.0487658  
H812     H      0.718430000000     0.597810000000     0.138760000000     0.0481152  
H813     H      0.738990000000     0.572670000000     0.100740000000     0.0493977  
H814     H      0.725960000000     0.605130000000     0.091730000000     0.0429177  
H815     H      0.778190000000     0.660690000000     0.128340000000     0.0482684  
H816     H      0.763500000000     0.644540000000     0.085160000000     0.0431291  
H817     H      0.663270000000     0.518510000000     0.362150000000     0.0419903  
H818     H      0.621910000000     0.513980000000     0.396630000000     0.0422584  
H819     H      0.580060000000     0.502120000000     0.373080000000     0.0483413  
H820     H      0.678620000000     0.987890000000     0.350590000000     0.0485949  
H821     H      0.646790000000     0.508940000000     0.317690000000     0.0486348  
H822     H      0.636770000000     0.975570000000     0.327100000000     0.0404065  
H823     H      0.611840000000     0.480600000000     0.405890000000     0.0496461  
H824     H      0.595030000000     0.971330000000     0.361560000000     0.0407325  
H825     H      0.789150000000     0.877270000000     0.383350000000     0.0428295  
H826     H      0.752550000000     0.837570000000     0.383530000000     0.0415679  
H827     H      0.708550000000     0.853820000000     0.366520000000     0.0479575  
H828     H      0.804440000000     0.885950000000     0.352180000000     0.0498305  
H829     H      0.767740000000     0.918180000000     0.366370000000     0.0502548  
H830     H      0.760370000000     0.902100000000     0.335410000000     0.0419991  
H831     H      0.745260000000     0.821570000000     0.352490000000     0.0484047  
H832     H      0.724080000000     0.862600000000     0.335470000000     0.041036   
H833     H      0.784480000000     0.486850000000     0.463150000000     0.0413417  
H834     H      0.742180000000     0.521730000000     0.967660000000     0.0409804  
H835     H      0.701350000000     0.998000000000     0.983270000000     0.0480797  
H836     H      0.800880000000     0.476810000000     0.493380000000     0.048882   
H837     H      0.768450000000     0.942150000000     0.475320000000     0.0497436  
H838     H      0.759690000000     0.953410000000     0.507980000000     0.0421157  
H839     H      0.733800000000     0.532750000000     0.000470000000     0.0499616  
H840     H      0.718930000000     0.987680000000     0.012820000000     0.0418298  
H841     H      0.976590000000     0.844470000000     0.115740000000     0.0423521  
H842     H      0.520530000000     0.855120000000     0.146080000000     0.0428375  
H843     H      0.558850000000     0.868670000000     0.118160000000     0.0489566  
H844     H      0.957770000000     0.872800000000     0.103340000000     0.0485758  
H845     H      0.988460000000     0.851460000000     0.069540000000     0.0491236  
H846     H      0.996140000000     0.886200000000     0.075490000000     0.0404814  
H847     H      0.028140000000     0.889900000000     0.152000000000     0.0493792  
H848     H      0.039860000000     0.896910000000     0.105750000000     0.0407244  
H849     H      0.661580000000     0.835180000000     0.480320000000     0.0421646  
H850     H      0.617810000000     0.844080000000     0.451070000000     0.042773   
H851     H      0.580930000000     0.862740000000     0.478160000000     0.049282   
H852     H      0.682720000000     0.863430000000     0.488880000000     0.0488809  
H853     H      0.652550000000     0.847950000000     0.026040000000     0.0489963  
H854     H      0.646260000000     0.882140000000     0.016490000000     0.0408701  
H855     H      0.611080000000     0.878060000000     0.440980000000     0.0495266  
H856     H      0.601640000000     0.891340000000     0.986560000000     0.0409153  
H857     H      0.626190000000     0.713410000000     0.084640000000     0.0404769  
H858     H      0.596060000000     0.727500000000     0.126410000000     0.0411203  
H859     H      0.625940000000     0.742710000000     0.161920000000     0.0484341  
H860     H      0.639530000000     0.740020000000     0.064430000000     0.0487663  
H861     H      0.674590000000     0.719580000000     0.094710000000     0.0484111  
H862     H      0.669810000000     0.754960000000     0.099690000000     0.0428064  
H863     H      0.590710000000     0.762780000000     0.131710000000     0.0487324  
H864     H      0.639130000000     0.769510000000     0.141840000000     0.0427959  
H865     H      0.974610000000     0.593360000000     0.369360000000     0.0420657  
H866     H      0.518040000000     0.605230000000     0.399520000000     0.0419281  
H867     H      0.555090000000     0.621040000000     0.371350000000     0.0487325  
H868     H      0.953610000000     0.620930000000     0.358560000000     0.0502829  
H869     H      0.984490000000     0.603420000000     0.323120000000     0.0497536  
H870     H      0.990700000000     0.638130000000     0.330820000000     0.0414742  
H871     H      0.524070000000     0.640090000000     0.406420000000     0.0490483  
H872     H      0.534920000000     0.649090000000     0.360400000000     0.0407019  
H873     H      0.847720000000     0.607850000000     0.452730000000     0.0399346  
H874     H      0.891100000000     0.579750000000     0.965190000000     0.0402257  
H875     H      0.926550000000     0.608640000000     0.984010000000     0.0481551  
H876     H      0.824720000000     0.617690000000     0.478760000000     0.0489762  
H877     H      0.855140000000     0.655080000000     0.463070000000     0.0484284  
H878     H      0.859380000000     0.647560000000     0.497530000000     0.0435943  
H879     H      0.896210000000     0.571150000000     0.999350000000     0.0491248  
H880     H      0.904290000000     0.618180000000     0.010720000000     0.0431374  
H881     H      0.861510000000     0.753580000000     0.391340000000     0.042372   
H882     H      0.867420000000     0.717330000000     0.351120000000     0.0433009  
H883     H      0.886470000000     0.740280000000     0.312650000000     0.0501053  
H884     H      0.892500000000     0.762650000000     0.408410000000     0.0484851  
H885     H      0.876860000000     0.797440000000     0.375840000000     0.0484421  
H886     H      0.910710000000     0.784660000000     0.369220000000     0.0404145  
H887     H      0.901740000000     0.705520000000     0.345260000000     0.0497456  
H888     H      0.916490000000     0.749930000000     0.331010000000     0.0403928  
H889     H      0.971050000000     0.760200000000     0.500980000000     0.0427187  
H890     H      0.004290000000     0.769550000000     0.459730000000     0.0421527  
H891     H      0.551380000000     0.758070000000     0.471800000000     0.0492846  
H892     H      0.961680000000     0.725900000000     0.007130000000     0.0491428  
H893     H      0.997890000000     0.743040000000     0.037980000000     0.0489395  
H894     H      0.008850000000     0.714560000000     0.018910000000     0.0411341  
H895     H      0.515150000000     0.740830000000     0.440940000000     0.0487302  
H896     H      0.541810000000     0.723830000000     0.978110000000     0.041722   
H897     H      0.972660000000     0.522960000000     0.737490000000     0.0424981  
H898     H      0.512910000000     0.022410000000     0.701980000000     0.0426472  
H899     H      0.555400000000     0.008770000000     0.723430000000     0.0493625  
H900     H      0.957400000000     0.491310000000     0.746090000000     0.0488447  
H901     H      0.989790000000     0.508370000000     0.780500000000     0.0500667  
H902     H      0.999920000000     0.476460000000     0.767160000000     0.0406506  
H903     H      0.523110000000     0.990300000000     0.689130000000     0.049714   
H904     H      0.541150000000     0.976640000000     0.731900000000     0.0410382  
H905     H      0.850030000000     0.877740000000     0.713630000000     0.0419757  
H906     H      0.889280000000     0.840360000000     0.712770000000     0.041073   
H907     H      0.932990000000     0.860010000000     0.726440000000     0.0477048  
H908     H      0.836290000000     0.886790000000     0.745350000000     0.0493591  
H909     H      0.869740000000     0.920500000000     0.727430000000     0.0496715  
H910     H      0.879960000000     0.906580000000     0.758650000000     0.0418612  
H911     H      0.899480000000     0.826250000000     0.743930000000     0.0482741  
H912     H      0.918960000000     0.869090000000     0.758050000000     0.0407068  
H913     H      0.664180000000     0.608540000000     0.749900000000     0.0430753  
H914     H      0.627550000000     0.603180000000     0.708810000000     0.0433709  
H915     H      0.581820000000     0.614050000000     0.725000000000     0.0487331  
H916     H      0.673750000000     0.642360000000     0.757980000000     0.0496858  
H917     H      0.639190000000     0.622720000000     0.789170000000     0.0491375  
H918     H      0.627520000000     0.652670000000     0.772900000000     0.0399959  
H919     H      0.616450000000     0.634050000000     0.693900000000     0.0485395  
H920     H      0.592430000000     0.647430000000     0.733840000000     0.0401409  
H921     H      0.773210000000     0.760620000000     0.705100000000     0.0411381  
H922     H      0.787400000000     0.718110000000     0.735310000000     0.0417815  
H923     H      0.778750000000     0.728640000000     0.781610000000     0.0495427  
H924     H      0.737150000000     0.765420000000     0.699280000000     0.0487338  
H925     H      0.756510000000     0.796550000000     0.733480000000     0.0482175  
H926     H      0.729170000000     0.775710000000     0.745630000000     0.0413464  
H927     H      0.759730000000     0.697560000000     0.747280000000     0.0500555  
H928     H      0.742830000000     0.733860000000     0.775140000000     0.0422161  
H929     H      0.845670000000     0.988260000000     0.632360000000     0.041011   
H930     H      0.882010000000     0.528030000000     0.633440000000     0.0401587  
H931     H      0.926910000000     0.511600000000     0.619300000000     0.0479658  
H932     H      0.832140000000     0.978710000000     0.600700000000     0.0489414  
H933     H      0.868060000000     0.947040000000     0.617720000000     0.0496646  
H934     H      0.876940000000     0.962060000000     0.586620000000     0.0423998  
H935     H      0.890970000000     0.543310000000     0.602450000000     0.0491597  
H936     H      0.913430000000     0.502160000000     0.587580000000     0.0422766  
H937     H      0.753940000000     0.589280000000     0.643610000000     0.0398877  
H938     H      0.790730000000     0.627980000000     0.637230000000     0.0400644  
H939     H      0.798810000000     0.635440000000     0.590350000000     0.0487731  
H940     H      0.718430000000     0.597810000000     0.638760000000     0.0481165  
H941     H      0.738990000000     0.572670000000     0.600740000000     0.0494011  
H942     H      0.725960000000     0.605130000000     0.591730000000     0.0429242  
H943     H      0.778190000000     0.660690000000     0.628340000000     0.0482711  
H944     H      0.763500000000     0.644540000000     0.585160000000     0.0431374  
H945     H      0.663270000000     0.518510000000     0.862150000000     0.0419922  
H946     H      0.621910000000     0.513980000000     0.896630000000     0.0422627  
H947     H      0.580060000000     0.502120000000     0.873080000000     0.0483439  
H948     H      0.678620000000     0.987890000000     0.850590000000     0.0485953  
H949     H      0.646790000000     0.508940000000     0.817690000000     0.048635   
H950     H      0.636770000000     0.975570000000     0.827100000000     0.0404067  
H951     H      0.611840000000     0.480600000000     0.905890000000     0.0496505  
H952     H      0.595030000000     0.971330000000     0.861560000000     0.0407339  
H953     H      0.789150000000     0.877270000000     0.883350000000     0.0428329  
H954     H      0.752550000000     0.837570000000     0.883530000000     0.0415712  
H955     H      0.708550000000     0.853820000000     0.866520000000     0.0479585  
H956     H      0.804440000000     0.885950000000     0.852180000000     0.0498319  
H957     H      0.767740000000     0.918180000000     0.866370000000     0.0502558  
H958     H      0.760370000000     0.902100000000     0.835410000000     0.0419988  
H959     H      0.745260000000     0.821570000000     0.852490000000     0.048406   
H960     H      0.724080000000     0.862600000000     0.835470000000     0.0410357  
H961     H      0.784480000000     0.486850000000     0.963150000000     0.0413524  
H962     H      0.742180000000     0.521730000000     0.467660000000     0.0409853  
H963     H      0.701350000000     0.998000000000     0.483270000000     0.0480783  
H964     H      0.800880000000     0.476810000000     0.993380000000     0.0489129  
H965     H      0.768450000000     0.942150000000     0.975320000000     0.0497337  
H966     H      0.759690000000     0.953410000000     0.007980000000     0.0420412  
H967     H      0.733800000000     0.532750000000     0.500470000000     0.0500265  
H968     H      0.718930000000     0.987680000000     0.512820000000     0.041893   
H969     H      0.976590000000     0.844470000000     0.615740000000     0.0423538  
H970     H      0.520530000000     0.855120000000     0.646080000000     0.0428308  
H971     H      0.558850000000     0.868670000000     0.618160000000     0.0489789  
H972     H      0.957770000000     0.872800000000     0.603340000000     0.0485813  
H973     H      0.988460000000     0.851460000000     0.569540000000     0.0491326  
H974     H      0.996140000000     0.886200000000     0.575490000000     0.0404918  
H975     H      0.028140000000     0.889900000000     0.652000000000     0.0493727  
H976     H      0.039860000000     0.896910000000     0.605750000000     0.0407485  
H977     H      0.661580000000     0.835180000000     0.980320000000     0.0421657  
H978     H      0.617810000000     0.844080000000     0.951070000000     0.0427826  
H979     H      0.580930000000     0.862740000000     0.978160000000     0.0492961  
H980     H      0.682720000000     0.863430000000     0.988880000000     0.0488836  
H981     H      0.652550000000     0.847950000000     0.526040000000     0.0489945  
H982     H      0.646260000000     0.882140000000     0.516490000000     0.0408745  
H983     H      0.611080000000     0.878060000000     0.940980000000     0.0495304  
H984     H      0.601640000000     0.891340000000     0.486560000000     0.0409021  
H985     H      0.626190000000     0.713410000000     0.584640000000     0.0404842  
H986     H      0.596060000000     0.727500000000     0.626410000000     0.0411225  
H987     H      0.625940000000     0.742710000000     0.661920000000     0.048434   
H988     H      0.639530000000     0.740020000000     0.564430000000     0.048777   
H989     H      0.674590000000     0.719580000000     0.594710000000     0.0484172  
H990     H      0.669810000000     0.754960000000     0.599690000000     0.0428102  
H991     H      0.590710000000     0.762780000000     0.631710000000     0.0487326  
H992     H      0.639130000000     0.769510000000     0.641840000000     0.0427956  
H993     H      0.974610000000     0.593360000000     0.869360000000     0.0420703  
H994     H      0.518040000000     0.605230000000     0.899520000000     0.0419278  
H995     H      0.555090000000     0.621040000000     0.871350000000     0.0487453  
H996     H      0.953610000000     0.620930000000     0.858560000000     0.0502872  
H997     H      0.984490000000     0.603420000000     0.823120000000     0.0497462  
H998     H      0.990700000000     0.638130000000     0.830820000000     0.0414673  
H999     H      0.524070000000     0.640090000000     0.906420000000     0.04905    
H1000    H      0.534920000000     0.649090000000     0.860400000000     0.0407162  
H1001    H      0.847720000000     0.607850000000     0.952730000000     0.0399398  
H1002    H      0.891100000000     0.579750000000     0.465190000000     0.0402143  
H1003    H      0.926550000000     0.608640000000     0.484010000000     0.048163   
H1004    H      0.824720000000     0.617690000000     0.978760000000     0.0489938  
H1005    H      0.855140000000     0.655080000000     0.963070000000     0.0484334  
H1006    H      0.859380000000     0.647560000000     0.997530000000     0.0436109  
H1007    H      0.896210000000     0.571150000000     0.499350000000     0.0490924  
H1008    H      0.904290000000     0.618180000000     0.510720000000     0.043217   
H1009    H      0.861510000000     0.753580000000     0.891340000000     0.0423851  
H1010    H      0.867420000000     0.717330000000     0.851120000000     0.0433023  
H1011    H      0.886470000000     0.740280000000     0.812650000000     0.0501045  
H1012    H      0.892500000000     0.762650000000     0.908410000000     0.0485008  
H1013    H      0.876860000000     0.797440000000     0.875840000000     0.0484103  
H1014    H      0.910710000000     0.784660000000     0.869220000000     0.0403834  
H1015    H      0.901740000000     0.705520000000     0.845260000000     0.0497465  
H1016    H      0.916490000000     0.749930000000     0.831010000000     0.0403915  
H1017    H      0.971050000000     0.760200000000     0.000980000000     0.0426134  
H1018    H      0.004290000000     0.769550000000     0.959730000000     0.0421664  
H1019    H      0.551380000000     0.758070000000     0.971800000000     0.0492927  
H1020    H      0.961680000000     0.725900000000     0.507130000000     0.0492495  
H1021    H      0.997890000000     0.743040000000     0.537980000000     0.0489191  
H1022    H      0.008850000000     0.714560000000     0.518910000000     0.0411324  
H1023    H      0.515150000000     0.740830000000     0.940940000000     0.0487329  
H1024    H      0.541810000000     0.723830000000     0.478110000000     0.0417148  
In1      In     0.440150000000     0.182460000000     0.427610000000     2.40319    
In2      In     0.070250000000     0.304650000000     0.050490000000     2.40727    
In3      In     0.190850000000     0.427980000000     0.421630000000     2.40245    
In4      In     0.314710000000     0.053580000000     0.046270000000     2.41679    
In5      In     0.198440000000     0.181890000000     0.176910000000     2.3991     
In6      In     0.323420000000     0.310520000000     0.299230000000     2.40279    
In7      In     0.445800000000     0.435660000000     0.171960000000     2.39295    
In8      In     0.067420000000     0.060510000000     0.300710000000     2.40013    
In9      In     0.440150000000     0.182460000000     0.927610000000     2.4032     
In10     In     0.070250000000     0.304650000000     0.550490000000     2.40726    
In11     In     0.190850000000     0.427980000000     0.921630000000     2.40245    
In12     In     0.314710000000     0.053580000000     0.546270000000     2.41691    
In13     In     0.198440000000     0.181890000000     0.676910000000     2.3991     
In14     In     0.323420000000     0.310520000000     0.799230000000     2.40279    
In15     In     0.445800000000     0.435660000000     0.671960000000     2.39281    
In16     In     0.067420000000     0.060510000000     0.800710000000     2.3999     
In17     In     0.440150000000     0.682460000000     0.427610000000     2.40319    
In18     In     0.070250000000     0.804650000000     0.050490000000     2.40727    
In19     In     0.190850000000     0.927980000000     0.421630000000     2.40248    
In20     In     0.314710000000     0.553580000000     0.046270000000     2.41679    
In21     In     0.198440000000     0.681890000000     0.176910000000     2.39917    
In22     In     0.323420000000     0.810510000000     0.299230000000     2.40302    
In23     In     0.445800000000     0.935660000000     0.171960000000     2.39268    
In24     In     0.067420000000     0.560510000000     0.300710000000     2.40023    
In25     In     0.440150000000     0.682460000000     0.927610000000     2.40319    
In26     In     0.070250000000     0.804650000000     0.550490000000     2.40726    
In27     In     0.190850000000     0.927980000000     0.921630000000     2.40248    
In28     In     0.314710000000     0.553580000000     0.546270000000     2.41691    
In29     In     0.198440000000     0.681890000000     0.676910000000     2.39917    
In30     In     0.323420000000     0.810510000000     0.799230000000     2.40302    
In31     In     0.445800000000     0.935660000000     0.671960000000     2.39254    
In32     In     0.067420000000     0.560510000000     0.800710000000     2.4        
In33     In     0.940150000000     0.182460000000     0.427610000000     2.40319    
In34     In     0.570250000000     0.304650000000     0.050490000000     2.40729    
In35     In     0.690850000000     0.427980000000     0.421630000000     2.40245    
In36     In     0.814710000000     0.053580000000     0.046270000000     2.4168     
In37     In     0.698440000000     0.181890000000     0.176910000000     2.39909    
In38     In     0.823420000000     0.310520000000     0.299230000000     2.40294    
In39     In     0.945800000000     0.435660000000     0.171960000000     2.39295    
In40     In     0.567420000000     0.060510000000     0.300710000000     2.40013    
In41     In     0.940150000000     0.182460000000     0.927610000000     2.4032     
In42     In     0.570250000000     0.304650000000     0.550490000000     2.40728    
In43     In     0.690850000000     0.427980000000     0.921630000000     2.40245    
In44     In     0.814710000000     0.053580000000     0.546270000000     2.41692    
In45     In     0.698440000000     0.181890000000     0.676910000000     2.39909    
In46     In     0.823420000000     0.310520000000     0.799230000000     2.40294    
In47     In     0.945800000000     0.435660000000     0.671960000000     2.39282    
In48     In     0.567420000000     0.060510000000     0.800710000000     2.3999     
In49     In     0.940150000000     0.682460000000     0.427610000000     2.40319    
In50     In     0.570250000000     0.804650000000     0.050490000000     2.40729    
In51     In     0.690850000000     0.927980000000     0.421630000000     2.40248    
In52     In     0.814710000000     0.553580000000     0.046270000000     2.4168     
In53     In     0.698440000000     0.681890000000     0.176910000000     2.39916    
In54     In     0.823420000000     0.810510000000     0.299230000000     2.40317    
In55     In     0.945800000000     0.935660000000     0.171960000000     2.39268    
In56     In     0.567420000000     0.560510000000     0.300710000000     2.40024    
In57     In     0.940150000000     0.682460000000     0.927610000000     2.40319    
In58     In     0.570250000000     0.804650000000     0.550490000000     2.40728    
In59     In     0.690850000000     0.927980000000     0.921630000000     2.40249    
In60     In     0.814710000000     0.553580000000     0.546270000000     2.41692    
In61     In     0.698440000000     0.681890000000     0.676910000000     2.39916    
In62     In     0.823420000000     0.810510000000     0.799230000000     2.40317    
In63     In     0.945800000000     0.935660000000     0.671960000000     2.39255    
In64     In     0.567420000000     0.560510000000     0.800710000000     2.40001    
N1       N      0.024710000000     0.008650000000     0.254200000000    -0.165007   
N2       N      0.488320000000     0.490330000000     0.215520000000    -0.165528   
N3       N      0.403400000000     0.392280000000     0.226500000000    -0.166531   
N4       N      0.365820000000     0.354470000000     0.245010000000    -0.166856   
N5       N      0.108620000000     0.117360000000     0.258760000000    -0.166265   
N6       N      0.147940000000     0.137410000000     0.223670000000    -0.165347   
N7       N      0.268320000000     0.264300000000     0.259590000000    -0.16657    
N8       N      0.248490000000     0.229650000000     0.220760000000    -0.165866   
N9       N      0.399740000000     0.477370000000     0.118760000000    -0.166819   
N10      N      0.359410000000     0.012880000000     0.101090000000    -0.166219   
N11      N      0.269290000000     0.103210000000     0.092580000000    -0.166229   
N12      N      0.247450000000     0.130430000000     0.135880000000    -0.168253   
N13      N      0.111360000000     0.005820000000     0.343120000000    -0.16706    
N14      N      0.147220000000     0.483780000000     0.380420000000    -0.165732   
N15      N      0.236080000000     0.387790000000     0.366990000000    -0.166147   
N16      N      0.277020000000     0.351860000000     0.352050000000    -0.166017   
N17      N      0.233180000000     0.468250000000     0.478370000000    -0.167047   
N18      N      0.269450000000     0.007160000000     0.996790000000    -0.166146   
N19      N      0.025500000000     0.359620000000     0.091530000000    -0.166067   
N20      N      0.491080000000     0.381660000000     0.130080000000    -0.165964   
N21      N      0.114980000000     0.355370000000     0.004580000000    -0.16646    
N22      N      0.148510000000     0.371530000000     0.462900000000    -0.16601    
N23      N      0.152960000000     0.231140000000     0.130130000000    -0.166043   
N24      N      0.112770000000     0.251900000000     0.096340000000    -0.166558   
N25      N      0.021590000000     0.112000000000     0.344870000000    -0.166039   
N26      N      0.487060000000     0.130820000000     0.384830000000    -0.164905   
N27      N      0.392580000000     0.134580000000     0.473910000000    -0.16809    
N28      N      0.358910000000     0.092610000000     0.990130000000    -0.166591   
N29      N      0.380590000000     0.270600000000     0.342590000000    -0.165718   
N30      N      0.396260000000     0.231500000000     0.378990000000    -0.166449   
N31      N      0.026810000000     0.251060000000     0.006650000000    -0.166336   
N32      N      0.486030000000     0.233250000000     0.472180000000    -0.165988   
N33      N      0.024710000000     0.008650000000     0.754200000000    -0.165006   
N34      N      0.488320000000     0.490330000000     0.715520000000    -0.165528   
N35      N      0.403400000000     0.392280000000     0.726500000000    -0.166532   
N36      N      0.365820000000     0.354470000000     0.745010000000    -0.166856   
N37      N      0.108620000000     0.117360000000     0.758760000000    -0.166212   
N38      N      0.147940000000     0.137410000000     0.723670000000    -0.165349   
N39      N      0.268320000000     0.264300000000     0.759590000000    -0.16657    
N40      N      0.248490000000     0.229650000000     0.720760000000    -0.165866   
N41      N      0.399740000000     0.477370000000     0.618760000000    -0.166822   
N42      N      0.359410000000     0.012880000000     0.601090000000    -0.166226   
N43      N      0.269290000000     0.103210000000     0.592580000000    -0.166227   
N44      N      0.247450000000     0.130430000000     0.635880000000    -0.168253   
N45      N      0.111360000000     0.005820000000     0.843120000000    -0.167058   
N46      N      0.147220000000     0.483780000000     0.880420000000    -0.165732   
N47      N      0.236080000000     0.387790000000     0.866990000000    -0.166146   
N48      N      0.277020000000     0.351860000000     0.852050000000    -0.166016   
N49      N      0.233180000000     0.468250000000     0.978370000000    -0.16706    
N50      N      0.269450000000     0.007160000000     0.496790000000    -0.166187   
N51      N      0.025500000000     0.359620000000     0.591530000000    -0.166054   
N52      N      0.491080000000     0.381660000000     0.630080000000    -0.165967   
N53      N      0.114980000000     0.355370000000     0.504580000000    -0.166479   
N54      N      0.148510000000     0.371530000000     0.962900000000    -0.166012   
N55      N      0.152960000000     0.231140000000     0.630130000000    -0.166043   
N56      N      0.112770000000     0.251900000000     0.596340000000    -0.166556   
N57      N      0.021590000000     0.112000000000     0.844860000000    -0.166091   
N58      N      0.487060000000     0.130820000000     0.884830000000    -0.164904   
N59      N      0.392580000000     0.134580000000     0.973910000000    -0.168097   
N60      N      0.358910000000     0.092610000000     0.490130000000    -0.166612   
N61      N      0.380590000000     0.270600000000     0.842590000000    -0.165736   
N62      N      0.396260000000     0.231500000000     0.878990000000    -0.166442   
N63      N      0.026810000000     0.251060000000     0.506650000000    -0.16631    
N64      N      0.486030000000     0.233250000000     0.972180000000    -0.166008   
N65      N      0.024710000000     0.508650000000     0.254200000000    -0.165003   
N66      N      0.488320000000     0.990330000000     0.215520000000    -0.165598   
N67      N      0.403400000000     0.892290000000     0.226500000000    -0.166568   
N68      N      0.365820000000     0.854470000000     0.245010000000    -0.16688    
N69      N      0.108620000000     0.617360000000     0.258760000000    -0.166264   
N70      N      0.147940000000     0.637410000000     0.223670000000    -0.165347   
N71      N      0.268320000000     0.764300000000     0.259590000000    -0.166556   
N72      N      0.248490000000     0.729650000000     0.220760000000    -0.165871   
N73      N      0.399740000000     0.977370000000     0.118760000000    -0.166841   
N74      N      0.359410000000     0.512880000000     0.101090000000    -0.166239   
N75      N      0.269290000000     0.603210000000     0.092580000000    -0.16623    
N76      N      0.247450000000     0.630430000000     0.135880000000    -0.168254   
N77      N      0.111360000000     0.505820000000     0.343120000000    -0.16711    
N78      N      0.147220000000     0.983780000000     0.380420000000    -0.165748   
N79      N      0.236080000000     0.887790000000     0.366990000000    -0.166146   
N80      N      0.277020000000     0.851860000000     0.352050000000    -0.166072   
N81      N      0.233180000000     0.968250000000     0.478370000000    -0.167054   
N82      N      0.269450000000     0.507160000000     0.996790000000    -0.166165   
N83      N      0.025500000000     0.859620000000     0.091530000000    -0.166065   
N84      N      0.491080000000     0.881650000000     0.130080000000    -0.165914   
N85      N      0.114980000000     0.855370000000     0.004580000000    -0.166456   
N86      N      0.148510000000     0.871530000000     0.462900000000    -0.166014   
N87      N      0.152960000000     0.731140000000     0.130130000000    -0.166015   
N88      N      0.112770000000     0.751900000000     0.096340000000    -0.166552   
N89      N      0.021590000000     0.612000000000     0.344870000000    -0.16604    
N90      N      0.487060000000     0.630810000000     0.384830000000    -0.164847   
N91      N      0.392580000000     0.634580000000     0.473910000000    -0.168092   
N92      N      0.358910000000     0.592610000000     0.990130000000    -0.166589   
N93      N      0.380590000000     0.770600000000     0.342590000000    -0.165717   
N94      N      0.396260000000     0.731500000000     0.378990000000    -0.166449   
N95      N      0.026810000000     0.751060000000     0.006650000000    -0.166339   
N96      N      0.486030000000     0.733250000000     0.472180000000    -0.165977   
N97      N      0.024710000000     0.508650000000     0.754200000000    -0.165002   
N98      N      0.488320000000     0.990330000000     0.715520000000    -0.165597   
N99      N      0.403400000000     0.892290000000     0.726500000000    -0.166568   
N100     N      0.365820000000     0.854470000000     0.745010000000    -0.16688    
N101     N      0.108620000000     0.617360000000     0.758760000000    -0.166211   
N102     N      0.147940000000     0.637410000000     0.723670000000    -0.165349   
N103     N      0.268320000000     0.764300000000     0.759590000000    -0.166556   
N104     N      0.248490000000     0.729650000000     0.720760000000    -0.165871   
N105     N      0.399740000000     0.977370000000     0.618760000000    -0.166844   
N106     N      0.359410000000     0.512880000000     0.601090000000    -0.166246   
N107     N      0.269290000000     0.603210000000     0.592580000000    -0.166228   
N108     N      0.247450000000     0.630430000000     0.635880000000    -0.168254   
N109     N      0.111360000000     0.505820000000     0.843120000000    -0.167108   
N110     N      0.147220000000     0.983780000000     0.880420000000    -0.165747   
N111     N      0.236080000000     0.887790000000     0.866990000000    -0.166146   
N112     N      0.277020000000     0.851860000000     0.852050000000    -0.166071   
N113     N      0.233180000000     0.968250000000     0.978370000000    -0.167067   
N114     N      0.269450000000     0.507160000000     0.496790000000    -0.166206   
N115     N      0.025500000000     0.859620000000     0.591530000000    -0.166052   
N116     N      0.491080000000     0.881650000000     0.630080000000    -0.165916   
N117     N      0.114980000000     0.855370000000     0.504580000000    -0.166475   
N118     N      0.148510000000     0.871530000000     0.962900000000    -0.166016   
N119     N      0.152960000000     0.731140000000     0.630130000000    -0.166015   
N120     N      0.112770000000     0.751900000000     0.596340000000    -0.16655    
N121     N      0.021590000000     0.612000000000     0.844860000000    -0.166092   
N122     N      0.487060000000     0.630810000000     0.884830000000    -0.164847   
N123     N      0.392580000000     0.634580000000     0.973910000000    -0.168098   
N124     N      0.358910000000     0.592610000000     0.490130000000    -0.16661    
N125     N      0.380590000000     0.770600000000     0.842590000000    -0.165735   
N126     N      0.396260000000     0.731500000000     0.878990000000    -0.166443   
N127     N      0.026810000000     0.751060000000     0.506650000000    -0.166314   
N128     N      0.486030000000     0.733250000000     0.972180000000    -0.165997   
N129     N      0.524710000000     0.008650000000     0.254200000000    -0.164995   
N130     N      0.988310000000     0.490330000000     0.215520000000    -0.165565   
N131     N      0.903400000000     0.392280000000     0.226500000000    -0.166532   
N132     N      0.865820000000     0.354470000000     0.245010000000    -0.166855   
N133     N      0.608620000000     0.117360000000     0.258760000000    -0.166264   
N134     N      0.647930000000     0.137410000000     0.223670000000    -0.165293   
N135     N      0.768320000000     0.264300000000     0.259590000000    -0.166565   
N136     N      0.748490000000     0.229650000000     0.220760000000    -0.165868   
N137     N      0.899740000000     0.477370000000     0.118760000000    -0.166819   
N138     N      0.859410000000     0.012880000000     0.101090000000    -0.166219   
N139     N      0.769280000000     0.103210000000     0.092580000000    -0.166159   
N140     N      0.747450000000     0.130430000000     0.135880000000    -0.168259   
N141     N      0.611360000000     0.005820000000     0.343120000000    -0.167059   
N142     N      0.647220000000     0.483780000000     0.380420000000    -0.165732   
N143     N      0.736080000000     0.387790000000     0.366990000000    -0.166153   
N144     N      0.777020000000     0.351860000000     0.352050000000    -0.166016   
N145     N      0.733180000000     0.468250000000     0.478370000000    -0.167046   
N146     N      0.769450000000     0.007160000000     0.996790000000    -0.166193   
N147     N      0.525500000000     0.359620000000     0.091530000000    -0.166055   
N148     N      0.991080000000     0.381660000000     0.130080000000    -0.165954   
N149     N      0.614980000000     0.355370000000     0.004580000000    -0.166454   
N150     N      0.648510000000     0.371530000000     0.462900000000    -0.16603    
N151     N      0.652960000000     0.231140000000     0.130130000000    -0.165999   
N152     N      0.612770000000     0.251900000000     0.096340000000    -0.166557   
N153     N      0.521590000000     0.112000000000     0.344870000000    -0.166025   
N154     N      0.987060000000     0.130820000000     0.384830000000    -0.164894   
N155     N      0.892580000000     0.134580000000     0.473910000000    -0.168091   
N156     N      0.858910000000     0.092610000000     0.990130000000    -0.166592   
N157     N      0.880590000000     0.270600000000     0.342590000000    -0.165718   
N158     N      0.896260000000     0.231500000000     0.378990000000    -0.166449   
N159     N      0.526810000000     0.251060000000     0.006650000000    -0.166385   
N160     N      0.986030000000     0.233250000000     0.472180000000    -0.165969   
N161     N      0.524710000000     0.008650000000     0.754200000000    -0.164994   
N162     N      0.988310000000     0.490330000000     0.715520000000    -0.165564   
N163     N      0.903400000000     0.392280000000     0.726500000000    -0.166533   
N164     N      0.865820000000     0.354470000000     0.745010000000    -0.166855   
N165     N      0.608620000000     0.117360000000     0.758760000000    -0.166211   
N166     N      0.647930000000     0.137410000000     0.723670000000    -0.165295   
N167     N      0.768320000000     0.264300000000     0.759590000000    -0.166565   
N168     N      0.748490000000     0.229650000000     0.720760000000    -0.165868   
N169     N      0.899740000000     0.477370000000     0.618760000000    -0.166822   
N170     N      0.859410000000     0.012880000000     0.601090000000    -0.166226   
N171     N      0.769280000000     0.103210000000     0.592580000000    -0.166157   
N172     N      0.747450000000     0.130430000000     0.635880000000    -0.168259   
N173     N      0.611360000000     0.005820000000     0.843120000000    -0.167057   
N174     N      0.647220000000     0.483780000000     0.880420000000    -0.165731   
N175     N      0.736080000000     0.387790000000     0.866990000000    -0.166153   
N176     N      0.777020000000     0.351860000000     0.852050000000    -0.166015   
N177     N      0.733180000000     0.468250000000     0.978370000000    -0.167059   
N178     N      0.769450000000     0.007160000000     0.496790000000    -0.166234   
N179     N      0.525500000000     0.359620000000     0.591530000000    -0.166042   
N180     N      0.991080000000     0.381660000000     0.630080000000    -0.165957   
N181     N      0.614980000000     0.355370000000     0.504580000000    -0.166472   
N182     N      0.648510000000     0.371530000000     0.962900000000    -0.166032   
N183     N      0.652960000000     0.231140000000     0.630130000000    -0.165998   
N184     N      0.612770000000     0.251900000000     0.596340000000    -0.166555   
N185     N      0.521590000000     0.112000000000     0.844860000000    -0.166076   
N186     N      0.987060000000     0.130820000000     0.884830000000    -0.164893   
N187     N      0.892580000000     0.134580000000     0.973910000000    -0.168097   
N188     N      0.858910000000     0.092610000000     0.490130000000    -0.166613   
N189     N      0.880590000000     0.270600000000     0.842590000000    -0.165736   
N190     N      0.896260000000     0.231500000000     0.878990000000    -0.166442   
N191     N      0.526810000000     0.251060000000     0.506650000000    -0.166359   
N192     N      0.986030000000     0.233250000000     0.972180000000    -0.165989   
N193     N      0.524710000000     0.508650000000     0.254200000000    -0.164991   
N194     N      0.988310000000     0.990330000000     0.215520000000    -0.165634   
N195     N      0.903400000000     0.892290000000     0.226500000000    -0.166569   
N196     N      0.865820000000     0.854470000000     0.245010000000    -0.166879   
N197     N      0.608620000000     0.617360000000     0.258760000000    -0.166263   
N198     N      0.647930000000     0.637410000000     0.223670000000    -0.165293   
N199     N      0.768320000000     0.764300000000     0.259590000000    -0.166552   
N200     N      0.748490000000     0.729650000000     0.220760000000    -0.165873   
N201     N      0.899740000000     0.977370000000     0.118760000000    -0.166841   
N202     N      0.859410000000     0.512880000000     0.101090000000    -0.16624    
N203     N      0.769280000000     0.603210000000     0.092580000000    -0.166159   
N204     N      0.747450000000     0.630430000000     0.135880000000    -0.16826    
N205     N      0.611360000000     0.505820000000     0.343120000000    -0.167109   
N206     N      0.647220000000     0.983780000000     0.380420000000    -0.165748   
N207     N      0.736080000000     0.887790000000     0.366990000000    -0.166152   
N208     N      0.777020000000     0.851860000000     0.352050000000    -0.166071   
N209     N      0.733180000000     0.968250000000     0.478370000000    -0.167053   
N210     N      0.769450000000     0.507160000000     0.996790000000    -0.166212   
N211     N      0.525500000000     0.859620000000     0.091530000000    -0.166053   
N212     N      0.991080000000     0.881650000000     0.130080000000    -0.165904   
N213     N      0.614980000000     0.855370000000     0.004580000000    -0.16645    
N214     N      0.648510000000     0.871530000000     0.462900000000    -0.166034   
N215     N      0.652960000000     0.731140000000     0.130130000000    -0.165971   
N216     N      0.612770000000     0.751900000000     0.096340000000    -0.166552   
N217     N      0.521590000000     0.612000000000     0.344870000000    -0.166026   
N218     N      0.987060000000     0.630810000000     0.384830000000    -0.164836   
N219     N      0.892580000000     0.634580000000     0.473910000000    -0.168093   
N220     N      0.858910000000     0.592610000000     0.990130000000    -0.16659    
N221     N      0.880590000000     0.770600000000     0.342590000000    -0.165717   
N222     N      0.896260000000     0.731500000000     0.378990000000    -0.166449   
N223     N      0.526810000000     0.751060000000     0.006650000000    -0.166388   
N224     N      0.986030000000     0.733250000000     0.472180000000    -0.165958   
N225     N      0.524710000000     0.508650000000     0.754200000000    -0.16499    
N226     N      0.988310000000     0.990330000000     0.715520000000    -0.165633   
N227     N      0.903400000000     0.892290000000     0.726500000000    -0.16657    
N228     N      0.865820000000     0.854470000000     0.745010000000    -0.166879   
N229     N      0.608620000000     0.617360000000     0.758760000000    -0.16621    
N230     N      0.647930000000     0.637410000000     0.723670000000    -0.165295   
N231     N      0.768320000000     0.764300000000     0.759590000000    -0.166552   
N232     N      0.748490000000     0.729650000000     0.720760000000    -0.165873   
N233     N      0.899740000000     0.977370000000     0.618760000000    -0.166844   
N234     N      0.859410000000     0.512880000000     0.601090000000    -0.166247   
N235     N      0.769280000000     0.603210000000     0.592580000000    -0.166157   
N236     N      0.747450000000     0.630430000000     0.635880000000    -0.168259   
N237     N      0.611360000000     0.505820000000     0.843120000000    -0.167107   
N238     N      0.647220000000     0.983780000000     0.880420000000    -0.165747   
N239     N      0.736080000000     0.887790000000     0.866990000000    -0.166152   
N240     N      0.777020000000     0.851860000000     0.852050000000    -0.16607    
N241     N      0.733180000000     0.968250000000     0.978370000000    -0.167066   
N242     N      0.769450000000     0.507160000000     0.496790000000    -0.166253   
N243     N      0.525500000000     0.859620000000     0.591530000000    -0.16604    
N244     N      0.991080000000     0.881650000000     0.630080000000    -0.165906   
N245     N      0.614980000000     0.855370000000     0.504580000000    -0.166468   
N246     N      0.648510000000     0.871530000000     0.962900000000    -0.166035   
N247     N      0.652960000000     0.731140000000     0.630130000000    -0.16597    
N248     N      0.612770000000     0.751900000000     0.596340000000    -0.16655    
N249     N      0.521590000000     0.612000000000     0.844860000000    -0.166077   
N250     N      0.987060000000     0.630810000000     0.884830000000    -0.164835   
N251     N      0.892580000000     0.634580000000     0.973910000000    -0.168099   
N252     N      0.858910000000     0.592610000000     0.490130000000    -0.166611   
N253     N      0.880590000000     0.770600000000     0.842590000000    -0.165735   
N254     N      0.896260000000     0.731500000000     0.878990000000    -0.166442   
N255     N      0.526810000000     0.751060000000     0.506650000000    -0.166362   
N256     N      0.986030000000     0.733250000000     0.972180000000    -0.165978   
O1       O      0.421340000000     0.193290000000     0.387630000000    -0.493868   
O2       O      0.415930000000     0.220870000000     0.419060000000    -0.501263   
O3       O      0.481190000000     0.162570000000     0.417550000000    -0.493351   
O4       O      0.475650000000     0.211970000000     0.432920000000    -0.497235   
O5       O      0.398750000000     0.169580000000     0.444760000000    -0.508849   
O6       O      0.450820000000     0.202990000000     0.466360000000    -0.506467   
O7       O      0.446110000000     0.151530000000     0.395010000000    -0.493547   
O8       O      0.434030000000     0.147510000000     0.456140000000    -0.509329   
O9       O      0.030390000000     0.327090000000     0.059450000000    -0.49897    
O10      O      0.065440000000     0.336400000000     0.082700000000    -0.501604   
O11      O      0.104350000000     0.273810000000     0.057040000000    -0.50152    
O12      O      0.061850000000     0.281500000000     0.012530000000    -0.501047   
O13      O      0.074930000000     0.333740000000     0.016090000000    -0.502673   
O14      O      0.035080000000     0.274760000000     0.044980000000    -0.500316   
O15      O      0.079140000000     0.283790000000     0.089790000000    -0.501515   
O16      O      0.110160000000     0.326230000000     0.039720000000    -0.499963   
O17      O      0.152510000000     0.453590000000     0.414620000000    -0.490951   
O18      O      0.185490000000     0.457500000000     0.387470000000    -0.503632   
O19      O      0.195340000000     0.461770000000     0.451800000000    -0.509142   
O20      O      0.187180000000     0.396590000000     0.454160000000    -0.505933   
O21      O      0.197850000000     0.392820000000     0.393430000000    -0.506399   
O22      O      0.152500000000     0.402690000000     0.429400000000    -0.493314   
O23      O      0.228590000000     0.434610000000     0.447520000000    -0.496205   
O24      O      0.228140000000     0.423500000000     0.394840000000    -0.494185   
O25      O      0.307080000000     0.093680000000     0.066810000000    -0.503096   
O26      O      0.278110000000     0.062420000000     0.072930000000    -0.502234   
O27      O      0.308930000000     0.016550000000     0.020220000000    -0.50197    
O28      O      0.319390000000     0.085110000000     0.013990000000    -0.50371    
O29      O      0.351030000000     0.049490000000     0.074460000000    -0.501848   
O30      O      0.354050000000     0.060850000000     0.022860000000    -0.501245   
O31      O      0.275540000000     0.043760000000     0.023870000000    -0.501138   
O32      O      0.322410000000     0.017350000000     0.072960000000    -0.502094   
O33      O      0.237430000000     0.171780000000     0.153760000000    -0.505706   
O34      O      0.207650000000     0.141110000000     0.158120000000    -0.507532   
O35      O      0.186870000000     0.199530000000     0.136820000000    -0.505557   
O36      O      0.186440000000     0.163330000000     0.216470000000    -0.494713   
O37      O      0.229180000000     0.188780000000     0.210290000000    -0.490344   
O38      O      0.159220000000     0.157700000000     0.184160000000    -0.496005   
O39      O      0.163990000000     0.212240000000     0.170360000000    -0.498873   
O40      O      0.216460000000     0.222660000000     0.187980000000    -0.501636   
O41      O      0.359820000000     0.317390000000     0.271550000000    -0.506654   
O42      O      0.329050000000     0.347450000000     0.272880000000    -0.496049   
O43      O      0.301160000000     0.270950000000     0.291690000000    -0.496612   
O44      O      0.350000000000     0.305290000000     0.336070000000    -0.502971   
O45      O      0.286320000000     0.314850000000     0.326310000000    -0.506986   
O46      O      0.353670000000     0.276200000000     0.305580000000    -0.490651   
O47      O      0.291600000000     0.303910000000     0.266750000000    -0.506968   
O48      O      0.315050000000     0.346980000000     0.325310000000    -0.494027   
O49      O      0.451030000000     0.462950000000     0.207770000000    -0.502878   
O50      O      0.482950000000     0.462860000000     0.179160000000    -0.48815    
O51      O      0.408870000000     0.428650000000     0.198870000000    -0.493524   
O52      O      0.408160000000     0.440850000000     0.145490000000    -0.495314   
O53      O      0.485570000000     0.412770000000     0.163420000000    -0.492374   
O54      O      0.437930000000     0.471910000000     0.145180000000    -0.505949   
O55      O      0.440720000000     0.399540000000     0.199370000000    -0.505886   
O56      O      0.451340000000     0.405330000000     0.138510000000    -0.503366   
O57      O      0.029930000000     0.034800000000     0.291430000000    -0.493923   
O58      O      0.062640000000     0.034770000000     0.263600000000    -0.495442   
O59      O      0.102960000000     0.089790000000     0.294900000000    -0.499044   
O60      O      0.061640000000     0.089210000000     0.335490000000    -0.499969   
O61      O      0.105710000000     0.034950000000     0.308120000000    -0.502376   
O62      O      0.027490000000     0.082500000000     0.310250000000    -0.495485   
O63      O      0.073240000000     0.087110000000     0.264320000000    -0.49911    
O64      O      0.073150000000     0.032140000000     0.335810000000    -0.505463   
O65      O      0.421340000000     0.193290000000     0.887630000000    -0.493868   
O66      O      0.415930000000     0.220870000000     0.919060000000    -0.501258   
O67      O      0.481190000000     0.162570000000     0.917550000000    -0.493348   
O68      O      0.475650000000     0.211970000000     0.932920000000    -0.497236   
O69      O      0.398750000000     0.169580000000     0.944760000000    -0.508846   
O70      O      0.450820000000     0.202990000000     0.966360000000    -0.506453   
O71      O      0.446110000000     0.151530000000     0.895010000000    -0.493547   
O72      O      0.434030000000     0.147510000000     0.956140000000    -0.509324   
O73      O      0.030390000000     0.327090000000     0.559450000000    -0.49896    
O74      O      0.065440000000     0.336400000000     0.582700000000    -0.501612   
O75      O      0.104350000000     0.273810000000     0.557040000000    -0.501509   
O76      O      0.061850000000     0.281500000000     0.512530000000    -0.501012   
O77      O      0.074930000000     0.333740000000     0.516090000000    -0.502723   
O78      O      0.035080000000     0.274760000000     0.544980000000    -0.50031    
O79      O      0.079140000000     0.283790000000     0.589790000000    -0.501516   
O80      O      0.110160000000     0.326230000000     0.539710000000    -0.50009    
O81      O      0.152510000000     0.453590000000     0.914620000000    -0.490947   
O82      O      0.185490000000     0.457500000000     0.887470000000    -0.503632   
O83      O      0.195340000000     0.461770000000     0.951800000000    -0.509138   
O84      O      0.187180000000     0.396590000000     0.954160000000    -0.505926   
O85      O      0.197850000000     0.392820000000     0.893430000000    -0.506399   
O86      O      0.152500000000     0.402690000000     0.929400000000    -0.493313   
O87      O      0.228590000000     0.434610000000     0.947520000000    -0.496202   
O88      O      0.228140000000     0.423500000000     0.894840000000    -0.494184   
O89      O      0.307080000000     0.093680000000     0.566810000000    -0.503094   
O90      O      0.278110000000     0.062420000000     0.572930000000    -0.502243   
O91      O      0.308930000000     0.016550000000     0.520220000000    -0.501972   
O92      O      0.319390000000     0.085110000000     0.513990000000    -0.503657   
O93      O      0.351030000000     0.049490000000     0.574460000000    -0.50183    
O94      O      0.354050000000     0.060850000000     0.522870000000    -0.501221   
O95      O      0.275540000000     0.043760000000     0.523870000000    -0.501152   
O96      O      0.322410000000     0.017350000000     0.572960000000    -0.502098   
O97      O      0.237430000000     0.171780000000     0.653760000000    -0.505704   
O98      O      0.207650000000     0.141110000000     0.658120000000    -0.507532   
O99      O      0.186870000000     0.199530000000     0.636820000000    -0.505554   
O100     O      0.186440000000     0.163330000000     0.716470000000    -0.494714   
O101     O      0.229180000000     0.188780000000     0.710290000000    -0.490344   
O102     O      0.159220000000     0.157700000000     0.684160000000    -0.496004   
O103     O      0.163990000000     0.212240000000     0.670360000000    -0.498873   
O104     O      0.216460000000     0.222660000000     0.687980000000    -0.501636   
O105     O      0.359820000000     0.317390000000     0.771550000000    -0.506654   
O106     O      0.329050000000     0.347450000000     0.772880000000    -0.49605    
O107     O      0.301160000000     0.270950000000     0.791690000000    -0.496611   
O108     O      0.350000000000     0.305290000000     0.836070000000    -0.502971   
O109     O      0.286320000000     0.314850000000     0.826310000000    -0.506986   
O110     O      0.353670000000     0.276200000000     0.805580000000    -0.490652   
O111     O      0.291600000000     0.303910000000     0.766750000000    -0.506968   
O112     O      0.315050000000     0.346980000000     0.825310000000    -0.494027   
O113     O      0.451030000000     0.462950000000     0.707770000000    -0.502868   
O114     O      0.482950000000     0.462860000000     0.679160000000    -0.488134   
O115     O      0.408870000000     0.428650000000     0.698870000000    -0.493537   
O116     O      0.408160000000     0.440850000000     0.645480000000    -0.495263   
O117     O      0.485570000000     0.412770000000     0.663420000000    -0.492358   
O118     O      0.437930000000     0.471910000000     0.645180000000    -0.505965   
O119     O      0.440720000000     0.399540000000     0.699370000000    -0.505876   
O120     O      0.451340000000     0.405330000000     0.638510000000    -0.503348   
O121     O      0.029930000000     0.034800000000     0.791430000000    -0.493902   
O122     O      0.062640000000     0.034770000000     0.763600000000    -0.495429   
O123     O      0.102960000000     0.089790000000     0.794900000000    -0.498979   
O124     O      0.061640000000     0.089210000000     0.835490000000    -0.499974   
O125     O      0.105710000000     0.034950000000     0.808120000000    -0.502354   
O126     O      0.027490000000     0.082500000000     0.810250000000    -0.495493   
O127     O      0.073240000000     0.087110000000     0.764310000000    -0.498839   
O128     O      0.073150000000     0.032140000000     0.835810000000    -0.505436   
O129     O      0.421340000000     0.693290000000     0.387630000000    -0.493869   
O130     O      0.415930000000     0.720870000000     0.419060000000    -0.501263   
O131     O      0.481190000000     0.662570000000     0.417550000000    -0.49333    
O132     O      0.475650000000     0.711970000000     0.432920000000    -0.497237   
O133     O      0.398750000000     0.669580000000     0.444760000000    -0.508849   
O134     O      0.450820000000     0.702990000000     0.466360000000    -0.506466   
O135     O      0.446110000000     0.651530000000     0.395010000000    -0.493523   
O136     O      0.434030000000     0.647510000000     0.456140000000    -0.509329   
O137     O      0.030390000000     0.827090000000     0.059450000000    -0.49897    
O138     O      0.065440000000     0.836400000000     0.082700000000    -0.501605   
O139     O      0.104350000000     0.773810000000     0.057040000000    -0.50152    
O140     O      0.061850000000     0.781500000000     0.012530000000    -0.501048   
O141     O      0.074930000000     0.833740000000     0.016090000000    -0.502674   
O142     O      0.035080000000     0.774760000000     0.044980000000    -0.500316   
O143     O      0.079140000000     0.783790000000     0.089790000000    -0.501515   
O144     O      0.110160000000     0.826230000000     0.039720000000    -0.499963   
O145     O      0.152510000000     0.953600000000     0.414620000000    -0.490928   
O146     O      0.185490000000     0.957490000000     0.387470000000    -0.503743   
O147     O      0.195340000000     0.961770000000     0.451800000000    -0.509154   
O148     O      0.187180000000     0.896590000000     0.454160000000    -0.505942   
O149     O      0.197850000000     0.892820000000     0.393430000000    -0.506395   
O150     O      0.152500000000     0.902690000000     0.429400000000    -0.493343   
O151     O      0.228590000000     0.934610000000     0.447520000000    -0.496211   
O152     O      0.228140000000     0.923500000000     0.394840000000    -0.494176   
O153     O      0.307080000000     0.593680000000     0.066810000000    -0.503096   
O154     O      0.278110000000     0.562420000000     0.072930000000    -0.502237   
O155     O      0.308930000000     0.516550000000     0.020220000000    -0.501981   
O156     O      0.319390000000     0.585110000000     0.013990000000    -0.50371    
O157     O      0.351030000000     0.549490000000     0.074460000000    -0.50185    
O158     O      0.354050000000     0.560850000000     0.022860000000    -0.501247   
O159     O      0.275540000000     0.543760000000     0.023870000000    -0.501141   
O160     O      0.322410000000     0.517350000000     0.072960000000    -0.502105   
O161     O      0.237430000000     0.671780000000     0.153760000000    -0.505709   
O162     O      0.207650000000     0.641110000000     0.158120000000    -0.507531   
O163     O      0.186870000000     0.699520000000     0.136820000000    -0.505511   
O164     O      0.186440000000     0.663330000000     0.216470000000    -0.494721   
O165     O      0.229180000000     0.688780000000     0.210290000000    -0.490354   
O166     O      0.159220000000     0.657700000000     0.184160000000    -0.496003   
O167     O      0.163990000000     0.712240000000     0.170360000000    -0.498826   
O168     O      0.216460000000     0.722660000000     0.187980000000    -0.501652   
O169     O      0.359820000000     0.817390000000     0.271550000000    -0.506654   
O170     O      0.329050000000     0.847450000000     0.272880000000    -0.49591    
O171     O      0.301160000000     0.770950000000     0.291690000000    -0.496806   
O172     O      0.350000000000     0.805290000000     0.336070000000    -0.502985   
O173     O      0.286320000000     0.814850000000     0.326310000000    -0.507041   
O174     O      0.353670000000     0.776200000000     0.305580000000    -0.490819   
O175     O      0.291600000000     0.803910000000     0.266750000000    -0.507012   
O176     O      0.315050000000     0.846970000000     0.325310000000    -0.49414    
O177     O      0.451030000000     0.962960000000     0.207770000000    -0.502851   
O178     O      0.482950000000     0.962870000000     0.179160000000    -0.488132   
O179     O      0.408870000000     0.928650000000     0.198870000000    -0.493527   
O180     O      0.408160000000     0.940850000000     0.145490000000    -0.495286   
O181     O      0.485570000000     0.912770000000     0.163420000000    -0.49236    
O182     O      0.437930000000     0.971910000000     0.145180000000    -0.505932   
O183     O      0.440720000000     0.899540000000     0.199370000000    -0.505895   
O184     O      0.451340000000     0.905330000000     0.138510000000    -0.503318   
O185     O      0.029930000000     0.534800000000     0.291430000000    -0.493965   
O186     O      0.062640000000     0.534780000000     0.263600000000    -0.495543   
O187     O      0.102960000000     0.589790000000     0.294900000000    -0.499052   
O188     O      0.061640000000     0.589210000000     0.335490000000    -0.499982   
O189     O      0.105710000000     0.534950000000     0.308120000000    -0.50239    
O190     O      0.027490000000     0.582500000000     0.310250000000    -0.495496   
O191     O      0.073240000000     0.587110000000     0.264320000000    -0.499098   
O192     O      0.073150000000     0.532140000000     0.335810000000    -0.505478   
O193     O      0.421340000000     0.693290000000     0.887630000000    -0.493869   
O194     O      0.415930000000     0.720870000000     0.919060000000    -0.501258   
O195     O      0.481190000000     0.662570000000     0.917550000000    -0.493327   
O196     O      0.475650000000     0.711970000000     0.932920000000    -0.497238   
O197     O      0.398750000000     0.669580000000     0.944760000000    -0.508846   
O198     O      0.450820000000     0.702990000000     0.966360000000    -0.506452   
O199     O      0.446110000000     0.651530000000     0.895010000000    -0.493523   
O200     O      0.434030000000     0.647510000000     0.956140000000    -0.509324   
O201     O      0.030390000000     0.827090000000     0.559450000000    -0.498961   
O202     O      0.065440000000     0.836400000000     0.582700000000    -0.501613   
O203     O      0.104350000000     0.773810000000     0.557040000000    -0.501509   
O204     O      0.061850000000     0.781500000000     0.512530000000    -0.501012   
O205     O      0.074930000000     0.833740000000     0.516090000000    -0.502724   
O206     O      0.035080000000     0.774760000000     0.544980000000    -0.50031    
O207     O      0.079140000000     0.783790000000     0.589790000000    -0.501516   
O208     O      0.110160000000     0.826230000000     0.539710000000    -0.500091   
O209     O      0.152510000000     0.953600000000     0.914620000000    -0.490924   
O210     O      0.185490000000     0.957490000000     0.887470000000    -0.503744   
O211     O      0.195340000000     0.961770000000     0.951800000000    -0.50915    
O212     O      0.187180000000     0.896590000000     0.954160000000    -0.505935   
O213     O      0.197850000000     0.892820000000     0.893430000000    -0.506395   
O214     O      0.152500000000     0.902690000000     0.929400000000    -0.493342   
O215     O      0.228590000000     0.934610000000     0.947520000000    -0.496209   
O216     O      0.228140000000     0.923500000000     0.894840000000    -0.494175   
O217     O      0.307080000000     0.593680000000     0.566810000000    -0.503094   
O218     O      0.278110000000     0.562420000000     0.572930000000    -0.502246   
O219     O      0.308930000000     0.516550000000     0.520220000000    -0.501984   
O220     O      0.319390000000     0.585110000000     0.513990000000    -0.503658   
O221     O      0.351030000000     0.549490000000     0.574460000000    -0.501831   
O222     O      0.354050000000     0.560850000000     0.522870000000    -0.501223   
O223     O      0.275540000000     0.543760000000     0.523870000000    -0.501154   
O224     O      0.322410000000     0.517350000000     0.572960000000    -0.50211    
O225     O      0.237430000000     0.671780000000     0.653760000000    -0.505708   
O226     O      0.207650000000     0.641110000000     0.658120000000    -0.50753    
O227     O      0.186870000000     0.699520000000     0.636820000000    -0.505508   
O228     O      0.186440000000     0.663330000000     0.716470000000    -0.494722   
O229     O      0.229180000000     0.688780000000     0.710290000000    -0.490354   
O230     O      0.159220000000     0.657700000000     0.684160000000    -0.496002   
O231     O      0.163990000000     0.712240000000     0.670360000000    -0.498826   
O232     O      0.216460000000     0.722660000000     0.687980000000    -0.501651   
O233     O      0.359820000000     0.817390000000     0.771550000000    -0.506654   
O234     O      0.329050000000     0.847450000000     0.772880000000    -0.495911   
O235     O      0.301160000000     0.770950000000     0.791690000000    -0.496806   
O236     O      0.350000000000     0.805290000000     0.836070000000    -0.502986   
O237     O      0.286320000000     0.814850000000     0.826310000000    -0.507041   
O238     O      0.353670000000     0.776200000000     0.805580000000    -0.49082    
O239     O      0.291600000000     0.803910000000     0.766750000000    -0.507012   
O240     O      0.315050000000     0.846970000000     0.825310000000    -0.49414    
O241     O      0.451030000000     0.962960000000     0.707770000000    -0.502841   
O242     O      0.482950000000     0.962870000000     0.679160000000    -0.488116   
O243     O      0.408870000000     0.928650000000     0.698870000000    -0.493541   
O244     O      0.408160000000     0.940850000000     0.645480000000    -0.495236   
O245     O      0.485570000000     0.912770000000     0.663420000000    -0.492345   
O246     O      0.437930000000     0.971910000000     0.645180000000    -0.505948   
O247     O      0.440720000000     0.899540000000     0.699370000000    -0.505885   
O248     O      0.451340000000     0.905330000000     0.638510000000    -0.503301   
O249     O      0.029930000000     0.534800000000     0.791430000000    -0.493944   
O250     O      0.062640000000     0.534780000000     0.763600000000    -0.49553    
O251     O      0.102960000000     0.589790000000     0.794900000000    -0.498987   
O252     O      0.061640000000     0.589210000000     0.835490000000    -0.499987   
O253     O      0.105710000000     0.534950000000     0.808120000000    -0.502368   
O254     O      0.027490000000     0.582500000000     0.810250000000    -0.495504   
O255     O      0.073240000000     0.587110000000     0.764310000000    -0.498826   
O256     O      0.073150000000     0.532140000000     0.835810000000    -0.505452   
O257     O      0.921340000000     0.193290000000     0.387630000000    -0.493867   
O258     O      0.915930000000     0.220870000000     0.419060000000    -0.501262   
O259     O      0.981190000000     0.162570000000     0.417550000000    -0.493347   
O260     O      0.975650000000     0.211970000000     0.432920000000    -0.49723    
O261     O      0.898750000000     0.169580000000     0.444760000000    -0.508849   
O262     O      0.950820000000     0.202990000000     0.466360000000    -0.506466   
O263     O      0.946110000000     0.151530000000     0.395010000000    -0.493546   
O264     O      0.934030000000     0.147510000000     0.456140000000    -0.509328   
O265     O      0.530390000000     0.327090000000     0.059450000000    -0.498963   
O266     O      0.565440000000     0.336400000000     0.082700000000    -0.501605   
O267     O      0.604350000000     0.273810000000     0.057040000000    -0.501519   
O268     O      0.561850000000     0.281500000000     0.012530000000    -0.500942   
O269     O      0.574930000000     0.333740000000     0.016090000000    -0.502677   
O270     O      0.535080000000     0.274760000000     0.044980000000    -0.500333   
O271     O      0.579140000000     0.283790000000     0.089790000000    -0.501512   
O272     O      0.610160000000     0.326230000000     0.039720000000    -0.499965   
O273     O      0.652510000000     0.453590000000     0.414620000000    -0.490949   
O274     O      0.685490000000     0.457500000000     0.387470000000    -0.503632   
O275     O      0.695340000000     0.461770000000     0.451800000000    -0.509142   
O276     O      0.687180000000     0.396590000000     0.454160000000    -0.505934   
O277     O      0.697850000000     0.392820000000     0.393430000000    -0.5064     
O278     O      0.652500000000     0.402690000000     0.429400000000    -0.493315   
O279     O      0.728590000000     0.434610000000     0.447520000000    -0.496205   
O280     O      0.728140000000     0.423500000000     0.394840000000    -0.494186   
O281     O      0.807080000000     0.093680000000     0.066810000000    -0.503078   
O282     O      0.778110000000     0.062420000000     0.072930000000    -0.50221    
O283     O      0.808930000000     0.016550000000     0.020220000000    -0.501846   
O284     O      0.819390000000     0.085110000000     0.013990000000    -0.503708   
O285     O      0.851030000000     0.049490000000     0.074460000000    -0.501851   
O286     O      0.854050000000     0.060850000000     0.022860000000    -0.501248   
O287     O      0.775540000000     0.043760000000     0.023870000000    -0.501178   
O288     O      0.822410000000     0.017350000000     0.072960000000    -0.502101   
O289     O      0.737430000000     0.171780000000     0.153760000000    -0.505703   
O290     O      0.707650000000     0.141110000000     0.158120000000    -0.507529   
O291     O      0.686870000000     0.199530000000     0.136820000000    -0.505659   
O292     O      0.686440000000     0.163330000000     0.216470000000    -0.494693   
O293     O      0.729180000000     0.188780000000     0.210290000000    -0.490344   
O294     O      0.659220000000     0.157700000000     0.184160000000    -0.495974   
O295     O      0.663990000000     0.212240000000     0.170360000000    -0.49886    
O296     O      0.716460000000     0.222660000000     0.187980000000    -0.501642   
O297     O      0.859820000000     0.317390000000     0.271550000000    -0.506671   
O298     O      0.829050000000     0.347450000000     0.272880000000    -0.496065   
O299     O      0.801160000000     0.270950000000     0.291690000000    -0.496597   
O300     O      0.850000000000     0.305290000000     0.336070000000    -0.502962   
O301     O      0.786320000000     0.314850000000     0.326310000000    -0.506998   
O302     O      0.853660000000     0.276200000000     0.305580000000    -0.490727   
O303     O      0.791600000000     0.303910000000     0.266750000000    -0.50698    
O304     O      0.815050000000     0.346980000000     0.325310000000    -0.494043   
O305     O      0.951030000000     0.462950000000     0.207770000000    -0.502892   
O306     O      0.982950000000     0.462860000000     0.179160000000    -0.488168   
O307     O      0.908870000000     0.428650000000     0.198870000000    -0.493524   
O308     O      0.908160000000     0.440850000000     0.145490000000    -0.495314   
O309     O      0.985570000000     0.412770000000     0.163420000000    -0.49237    
O310     O      0.937930000000     0.471910000000     0.145180000000    -0.505947   
O311     O      0.940720000000     0.399540000000     0.199370000000    -0.505886   
O312     O      0.951340000000     0.405330000000     0.138510000000    -0.503366   
O313     O      0.529930000000     0.034800000000     0.291430000000    -0.49391    
O314     O      0.562640000000     0.034770000000     0.263600000000    -0.495441   
O315     O      0.602960000000     0.089790000000     0.294900000000    -0.499044   
O316     O      0.561640000000     0.089210000000     0.335490000000    -0.499968   
O317     O      0.605710000000     0.034950000000     0.308120000000    -0.502376   
O318     O      0.527490000000     0.082500000000     0.310250000000    -0.495473   
O319     O      0.573240000000     0.087110000000     0.264320000000    -0.499107   
O320     O      0.573150000000     0.032140000000     0.335810000000    -0.505458   
O321     O      0.921340000000     0.193290000000     0.887630000000    -0.493867   
O322     O      0.915930000000     0.220870000000     0.919060000000    -0.501257   
O323     O      0.981190000000     0.162570000000     0.917550000000    -0.493344   
O324     O      0.975650000000     0.211970000000     0.932920000000    -0.49723    
O325     O      0.898750000000     0.169580000000     0.944760000000    -0.508846   
O326     O      0.950820000000     0.202990000000     0.966360000000    -0.506452   
O327     O      0.946110000000     0.151530000000     0.895010000000    -0.493546   
O328     O      0.934030000000     0.147510000000     0.956140000000    -0.509323   
O329     O      0.530390000000     0.327090000000     0.559450000000    -0.498953   
O330     O      0.565440000000     0.336400000000     0.582700000000    -0.501613   
O331     O      0.604350000000     0.273810000000     0.557040000000    -0.501508   
O332     O      0.561850000000     0.281500000000     0.512530000000    -0.500906   
O333     O      0.574930000000     0.333740000000     0.516090000000    -0.502727   
O334     O      0.535080000000     0.274760000000     0.544980000000    -0.500327   
O335     O      0.579140000000     0.283790000000     0.589790000000    -0.501512   
O336     O      0.610160000000     0.326230000000     0.539710000000    -0.500093   
O337     O      0.652510000000     0.453590000000     0.914620000000    -0.490946   
O338     O      0.685490000000     0.457500000000     0.887470000000    -0.503632   
O339     O      0.695340000000     0.461770000000     0.951800000000    -0.509138   
O340     O      0.687180000000     0.396590000000     0.954160000000    -0.505927   
O341     O      0.697850000000     0.392820000000     0.893430000000    -0.5064     
O342     O      0.652500000000     0.402690000000     0.929400000000    -0.493314   
O343     O      0.728590000000     0.434610000000     0.947520000000    -0.496202   
O344     O      0.728140000000     0.423500000000     0.894840000000    -0.494185   
O345     O      0.807080000000     0.093680000000     0.566810000000    -0.503077   
O346     O      0.778110000000     0.062420000000     0.572930000000    -0.502219   
O347     O      0.808930000000     0.016550000000     0.520220000000    -0.501849   
O348     O      0.819390000000     0.085110000000     0.513990000000    -0.503655   
O349     O      0.851030000000     0.049490000000     0.574460000000    -0.501832   
O350     O      0.854050000000     0.060850000000     0.522870000000    -0.501224   
O351     O      0.775540000000     0.043760000000     0.523870000000    -0.501192   
O352     O      0.822410000000     0.017350000000     0.572960000000    -0.502105   
O353     O      0.737430000000     0.171780000000     0.653760000000    -0.505702   
O354     O      0.707650000000     0.141110000000     0.658120000000    -0.507528   
O355     O      0.686870000000     0.199530000000     0.636820000000    -0.505656   
O356     O      0.686440000000     0.163330000000     0.716470000000    -0.494694   
O357     O      0.729180000000     0.188780000000     0.710290000000    -0.490345   
O358     O      0.659220000000     0.157700000000     0.684160000000    -0.495973   
O359     O      0.663990000000     0.212240000000     0.670360000000    -0.49886    
O360     O      0.716460000000     0.222660000000     0.687980000000    -0.501641   
O361     O      0.859820000000     0.317390000000     0.771550000000    -0.506671   
O362     O      0.829050000000     0.347450000000     0.772880000000    -0.496065   
O363     O      0.801160000000     0.270950000000     0.791690000000    -0.496597   
O364     O      0.850000000000     0.305290000000     0.836070000000    -0.502962   
O365     O      0.786320000000     0.314850000000     0.826310000000    -0.506997   
O366     O      0.853660000000     0.276200000000     0.805580000000    -0.490728   
O367     O      0.791600000000     0.303910000000     0.766750000000    -0.50698    
O368     O      0.815050000000     0.346980000000     0.825310000000    -0.494043   
O369     O      0.951030000000     0.462950000000     0.707770000000    -0.502882   
O370     O      0.982950000000     0.462860000000     0.679160000000    -0.488151   
O371     O      0.908870000000     0.428650000000     0.698870000000    -0.493537   
O372     O      0.908160000000     0.440850000000     0.645480000000    -0.495264   
O373     O      0.985570000000     0.412770000000     0.663420000000    -0.492355   
O374     O      0.937930000000     0.471910000000     0.645180000000    -0.505963   
O375     O      0.940720000000     0.399540000000     0.699370000000    -0.505876   
O376     O      0.951340000000     0.405330000000     0.638510000000    -0.503348   
O377     O      0.529930000000     0.034800000000     0.791430000000    -0.493888   
O378     O      0.562640000000     0.034770000000     0.763600000000    -0.495428   
O379     O      0.602960000000     0.089790000000     0.794900000000    -0.498979   
O380     O      0.561640000000     0.089210000000     0.835490000000    -0.499972   
O381     O      0.605710000000     0.034950000000     0.808120000000    -0.502354   
O382     O      0.527490000000     0.082500000000     0.810250000000    -0.495481   
O383     O      0.573240000000     0.087110000000     0.764310000000    -0.498835   
O384     O      0.573150000000     0.032140000000     0.835810000000    -0.505432   
O385     O      0.921340000000     0.693290000000     0.387630000000    -0.493869   
O386     O      0.915930000000     0.720870000000     0.419060000000    -0.501262   
O387     O      0.981190000000     0.662570000000     0.417550000000    -0.493326   
O388     O      0.975650000000     0.711970000000     0.432920000000    -0.497232   
O389     O      0.898750000000     0.669580000000     0.444760000000    -0.508849   
O390     O      0.950820000000     0.702990000000     0.466360000000    -0.506465   
O391     O      0.946110000000     0.651530000000     0.395010000000    -0.493523   
O392     O      0.934030000000     0.647510000000     0.456140000000    -0.509328   
O393     O      0.530390000000     0.827090000000     0.059450000000    -0.498963   
O394     O      0.565440000000     0.836400000000     0.082700000000    -0.501606   
O395     O      0.604350000000     0.773810000000     0.057040000000    -0.501519   
O396     O      0.561850000000     0.781500000000     0.012530000000    -0.500942   
O397     O      0.574930000000     0.833740000000     0.016090000000    -0.502678   
O398     O      0.535080000000     0.774760000000     0.044980000000    -0.500333   
O399     O      0.579140000000     0.783790000000     0.089790000000    -0.501512   
O400     O      0.610160000000     0.826230000000     0.039720000000    -0.499966   
O401     O      0.652510000000     0.953600000000     0.414620000000    -0.490927   
O402     O      0.685490000000     0.957490000000     0.387470000000    -0.503743   
O403     O      0.695340000000     0.961770000000     0.451800000000    -0.509153   
O404     O      0.687180000000     0.896590000000     0.454160000000    -0.505943   
O405     O      0.697850000000     0.892820000000     0.393430000000    -0.506397   
O406     O      0.652500000000     0.902690000000     0.429400000000    -0.493344   
O407     O      0.728590000000     0.934610000000     0.447520000000    -0.496212   
O408     O      0.728140000000     0.923500000000     0.394840000000    -0.494176   
O409     O      0.807080000000     0.593680000000     0.066810000000    -0.503078   
O410     O      0.778110000000     0.562420000000     0.072930000000    -0.502214   
O411     O      0.808930000000     0.516550000000     0.020220000000    -0.501858   
O412     O      0.819390000000     0.585110000000     0.013990000000    -0.503709   
O413     O      0.851030000000     0.549490000000     0.074460000000    -0.501853   
O414     O      0.854050000000     0.560850000000     0.022860000000    -0.50125    
O415     O      0.775540000000     0.543760000000     0.023870000000    -0.50118    
O416     O      0.822410000000     0.517350000000     0.072960000000    -0.502112   
O417     O      0.737430000000     0.671780000000     0.153760000000    -0.505707   
O418     O      0.707650000000     0.641110000000     0.158120000000    -0.507527   
O419     O      0.686870000000     0.699520000000     0.136820000000    -0.505612   
O420     O      0.686440000000     0.663330000000     0.216470000000    -0.494701   
O421     O      0.729180000000     0.688780000000     0.210290000000    -0.490355   
O422     O      0.659220000000     0.657700000000     0.184160000000    -0.495972   
O423     O      0.663990000000     0.712240000000     0.170360000000    -0.498813   
O424     O      0.716460000000     0.722660000000     0.187980000000    -0.501657   
O425     O      0.859820000000     0.817390000000     0.271550000000    -0.506671   
O426     O      0.829050000000     0.847450000000     0.272880000000    -0.495926   
O427     O      0.801160000000     0.770950000000     0.291690000000    -0.496792   
O428     O      0.850000000000     0.805290000000     0.336070000000    -0.502977   
O429     O      0.786320000000     0.814850000000     0.326310000000    -0.507053   
O430     O      0.853660000000     0.776200000000     0.305580000000    -0.490895   
O431     O      0.791600000000     0.803910000000     0.266750000000    -0.507024   
O432     O      0.815050000000     0.846970000000     0.325310000000    -0.494156   
O433     O      0.951030000000     0.962960000000     0.207770000000    -0.502866   
O434     O      0.982950000000     0.962870000000     0.179160000000    -0.488149   
O435     O      0.908870000000     0.928650000000     0.198870000000    -0.493527   
O436     O      0.908160000000     0.940850000000     0.145490000000    -0.495286   
O437     O      0.985570000000     0.912770000000     0.163420000000    -0.492356   
O438     O      0.937930000000     0.971910000000     0.145180000000    -0.505931   
O439     O      0.940720000000     0.899540000000     0.199370000000    -0.505895   
O440     O      0.951340000000     0.905330000000     0.138510000000    -0.503318   
O441     O      0.529930000000     0.534800000000     0.291430000000    -0.493951   
O442     O      0.562640000000     0.534780000000     0.263600000000    -0.495542   
O443     O      0.602960000000     0.589790000000     0.294900000000    -0.499052   
O444     O      0.561640000000     0.589210000000     0.335490000000    -0.499981   
O445     O      0.605710000000     0.534950000000     0.308120000000    -0.50239    
O446     O      0.527490000000     0.582500000000     0.310250000000    -0.495484   
O447     O      0.573240000000     0.587110000000     0.264320000000    -0.499094   
O448     O      0.573150000000     0.532140000000     0.335810000000    -0.505474   
O449     O      0.921340000000     0.693290000000     0.887630000000    -0.493869   
O450     O      0.915930000000     0.720870000000     0.919060000000    -0.501257   
O451     O      0.981190000000     0.662570000000     0.917550000000    -0.493323   
O452     O      0.975650000000     0.711970000000     0.932920000000    -0.497233   
O453     O      0.898750000000     0.669580000000     0.944760000000    -0.508846   
O454     O      0.950820000000     0.702990000000     0.966360000000    -0.506451   
O455     O      0.946110000000     0.651530000000     0.895010000000    -0.493523   
O456     O      0.934030000000     0.647510000000     0.956140000000    -0.509323   
O457     O      0.530390000000     0.827090000000     0.559450000000    -0.498954   
O458     O      0.565440000000     0.836400000000     0.582700000000    -0.501614   
O459     O      0.604350000000     0.773810000000     0.557040000000    -0.501508   
O460     O      0.561850000000     0.781500000000     0.512530000000    -0.500907   
O461     O      0.574930000000     0.833740000000     0.516090000000    -0.502727   
O462     O      0.535080000000     0.774760000000     0.544980000000    -0.500327   
O463     O      0.579140000000     0.783790000000     0.589790000000    -0.501512   
O464     O      0.610160000000     0.826230000000     0.539710000000    -0.500093   
O465     O      0.652510000000     0.953600000000     0.914620000000    -0.490923   
O466     O      0.685490000000     0.957490000000     0.887470000000    -0.503744   
O467     O      0.695340000000     0.961770000000     0.951800000000    -0.509149   
O468     O      0.687180000000     0.896590000000     0.954160000000    -0.505937   
O469     O      0.697850000000     0.892820000000     0.893430000000    -0.506396   
O470     O      0.652500000000     0.902690000000     0.929400000000    -0.493343   
O471     O      0.728590000000     0.934610000000     0.947520000000    -0.496209   
O472     O      0.728140000000     0.923500000000     0.894840000000    -0.494176   
O473     O      0.807080000000     0.593680000000     0.566810000000    -0.503077   
O474     O      0.778110000000     0.562420000000     0.572930000000    -0.502223   
O475     O      0.808930000000     0.516550000000     0.520220000000    -0.50186    
O476     O      0.819390000000     0.585110000000     0.513990000000    -0.503656   
O477     O      0.851030000000     0.549490000000     0.574460000000    -0.501834   
O478     O      0.854050000000     0.560850000000     0.522870000000    -0.501226   
O479     O      0.775540000000     0.543760000000     0.523870000000    -0.501194   
O480     O      0.822410000000     0.517350000000     0.572960000000    -0.502117   
O481     O      0.737430000000     0.671780000000     0.653760000000    -0.505705   
O482     O      0.707650000000     0.641110000000     0.658120000000    -0.507526   
O483     O      0.686870000000     0.699520000000     0.636820000000    -0.505609   
O484     O      0.686440000000     0.663330000000     0.716470000000    -0.494702   
O485     O      0.729180000000     0.688780000000     0.710290000000    -0.490355   
O486     O      0.659220000000     0.657700000000     0.684160000000    -0.495971   
O487     O      0.663990000000     0.712240000000     0.670360000000    -0.498813   
O488     O      0.716460000000     0.722660000000     0.687980000000    -0.501657   
O489     O      0.859820000000     0.817390000000     0.771550000000    -0.506671   
O490     O      0.829050000000     0.847450000000     0.772880000000    -0.495926   
O491     O      0.801160000000     0.770950000000     0.791690000000    -0.496792   
O492     O      0.850000000000     0.805290000000     0.836070000000    -0.502977   
O493     O      0.786320000000     0.814850000000     0.826310000000    -0.507052   
O494     O      0.853660000000     0.776200000000     0.805580000000    -0.490896   
O495     O      0.791600000000     0.803910000000     0.766750000000    -0.507024   
O496     O      0.815050000000     0.846970000000     0.825310000000    -0.494156   
O497     O      0.951030000000     0.962960000000     0.707770000000    -0.502856   
O498     O      0.982950000000     0.962870000000     0.679160000000    -0.488133   
O499     O      0.908870000000     0.928650000000     0.698870000000    -0.49354    
O500     O      0.908160000000     0.940850000000     0.645480000000    -0.495236   
O501     O      0.985570000000     0.912770000000     0.663420000000    -0.492341   
O502     O      0.937930000000     0.971910000000     0.645180000000    -0.505947   
O503     O      0.940720000000     0.899540000000     0.699370000000    -0.505885   
O504     O      0.951340000000     0.905330000000     0.638510000000    -0.503301   
O505     O      0.529930000000     0.534800000000     0.791430000000    -0.49393    
O506     O      0.562640000000     0.534780000000     0.763600000000    -0.495529   
O507     O      0.602960000000     0.589790000000     0.794900000000    -0.498987   
O508     O      0.561640000000     0.589210000000     0.835490000000    -0.499985   
O509     O      0.605710000000     0.534950000000     0.808120000000    -0.502368   
O510     O      0.527490000000     0.582500000000     0.810250000000    -0.495492   
O511     O      0.573240000000     0.587110000000     0.764310000000    -0.498822   
O512     O      0.573150000000     0.532140000000     0.835810000000    -0.505447   


