data_structure

_audit_creation_method RASPA-1.0
_audit_creation_date 2023-6-5
_audit_author_name 'Poobodin Mano'

_cell_length_a    31.527
_cell_length_b    29.6403
_cell_length_c    33.6969
_cell_angle_alpha 89.5583
_cell_angle_beta  90.4418
_cell_angle_gamma 89.9991
_cell_volume      31486.9

_symmetry_cell_setting          triclinic
_symmetry_space_group_name_Hall 'P 1'
_symmetry_space_group_name_H-M  'P 1'
_symmetry_Int_Tables_number     1

_symmetry_equiv_pos_as_xyz 'x,y,z'

loop_
_atom_site_label
_atom_site_type_symbol
_atom_site_fract_x
_atom_site_fract_y
_atom_site_fract_z
_atom_site_charge
C1       C      0.325540000000     0.443390000000     0.997390000000     0.400155   
C2       C      0.313020000000     0.313280000000     0.418750000000     0.413019   
C3       C      0.424180000000     0.348130000000     0.487340000000     0.414487   
C4       C      0.294860000000     0.311160000000     0.043950000000     0.403669   
C5       C      0.308760000000     0.622440000000     0.513820000000     0.412863   
C6       C      0.274740000000     0.754030000000     0.052410000000     0.414105   
C7       C      0.410290000000     0.720630000000     0.002460000000     0.405215   
C8       C      0.300190000000     0.746920000000     0.429240000000     0.411097   
C9       C      0.591380000000     0.321460000000     0.978410000000     0.402872   
C10      C      0.719080000000     0.312020000000     0.422710000000     0.404038   
C11      C      0.663300000000     0.434520000000     0.490320000000     0.414961   
C12      C      0.716500000000     0.309780000000     0.047610000000     0.412241   
C13      C      0.681230000000     0.613620000000     0.009160000000     0.404078   
C14      C      0.702100000000     0.744630000000     0.444230000000     0.400616   
C15      C      0.582840000000     0.703500000000     0.511090000000     0.414348   
C16      C      0.709580000000     0.748300000000     0.068220000000     0.405297   
C17      C      0.857840000000     0.134460000000     0.250210000000     0.41314    
C18      C      0.794400000000     0.266080000000     0.287030000000     0.41568    
C19      C      0.931930000000     0.249350000000     0.247940000000     0.413172   
C20      C      0.816840000000     0.246240000000     0.166770000000     0.402054   
C21      C      0.905300000000     0.854780000000     0.258090000000     0.402755   
C22      C      0.783300000000     0.835880000000     0.325780000000     0.408174   
C23      C      0.820750000000     0.958200000000     0.253110000000     0.402795   
C24      C      0.773140000000     0.823700000000     0.202860000000     0.414288   
C25      C      0.075580000000     0.829890000000     0.256370000000     0.412434   
C26      C      0.201170000000     0.811710000000     0.187330000000     0.405852   
C27      C      0.169270000000     0.937620000000     0.245550000000     0.413344   
C28      C      0.196370000000     0.806740000000     0.314260000000     0.404005   
C29      C      0.097680000000     0.218790000000     0.242240000000     0.404826   
C30      C      0.214200000000     0.243470000000     0.304920000000     0.403398   
C31      C      0.190400000000     0.117250000000     0.225370000000     0.401909   
C32      C      0.227900000000     0.247880000000     0.180200000000     0.414128   
C33      C      0.163380000000     0.046410000000     0.195830000000    -0.0129851  
C34      C      0.226590000000     0.045090000000     0.240800000000    -0.0407592  
C35      C      0.141650000000     0.010710000000     0.221760000000    -0.0109594  
C36      C      0.204820000000     0.010310000000     0.267930000000     0.0795077  
C37      C      0.238640000000     0.983110000000     0.291090000000    -0.184808   
C38      C      0.971760000000     0.847790000000     0.220190000000    -0.0128906  
C39      C      0.973270000000     0.853920000000     0.295040000000    -0.0413373  
C40      C      0.007590000000     0.812990000000     0.222950000000    -0.0100623  
C41      C      0.008330000000     0.817870000000     0.296530000000     0.0790795  
C42      C      0.033850000000     0.821000000000     0.335530000000    -0.184821   
C43      C      0.834330000000     0.027520000000     0.213750000000    -0.0130882  
C44      C      0.813790000000     0.032390000000     0.285650000000    -0.0415818  
C45      C      0.871490000000     0.059580000000     0.221780000000    -0.00994643 
C46      C      0.851780000000     0.063800000000     0.293100000000     0.0796577  
C47      C      0.844880000000     0.092580000000     0.330310000000    -0.184448   
C48      C      0.030020000000     0.236240000000     0.208160000000    -0.0123162  
C49      C      0.031880000000     0.217410000000     0.281760000000    -0.0419135  
C50      C      0.998320000000     0.273900000000     0.216700000000    -0.00984116 
C51      C      0.999860000000     0.255700000000     0.288550000000     0.0799896  
C52      C      0.975410000000     0.248540000000     0.327430000000    -0.185543   
C53      C      0.757820000000     0.746680000000     0.393080000000    -0.0129427  
C54      C      0.696260000000     0.800500000000     0.389370000000    -0.0411042  
C55      C      0.788070000000     0.785580000000     0.384050000000    -0.0105154  
C56      C      0.727140000000     0.839380000000     0.379820000000     0.0781981  
C57      C      0.703680000000     0.877070000000     0.356900000000    -0.184608   
C58      C      0.766020000000     0.750390000000     0.119750000000    -0.0131874  
C59      C      0.717750000000     0.816990000000     0.108960000000    -0.0413368  
C60      C      0.759790000000     0.754430000000     0.164640000000    -0.0104406  
C61      C      0.711050000000     0.819850000000     0.154060000000     0.078919   
C62      C      0.697180000000     0.867760000000     0.165550000000    -0.184529   
C63      C      0.781410000000     0.317170000000     0.378610000000    -0.0127414  
C64      C      0.725770000000     0.257100000000     0.368210000000    -0.0413977  
C65      C      0.780220000000     0.327530000000     0.333980000000    -0.0101585  
C66      C      0.724410000000     0.269380000000     0.323840000000     0.0797857  
C67      C      0.706640000000     0.230150000000     0.299120000000    -0.184521   
C68      C      0.807480000000     0.301770000000     0.112240000000    -0.0127551  
C69      C      0.773360000000     0.225800000000     0.108060000000    -0.0410933  
C70      C      0.764780000000     0.324240000000     0.103650000000    -0.0103162  
C71      C      0.730110000000     0.248070000000     0.099220000000     0.0785491  
C72      C      0.701740000000     0.215230000000     0.075790000000    -0.184823   
C73      C      0.702000000000     0.544730000000     0.473100000000    -0.013066   
C74      C      0.673800000000     0.539240000000     0.042400000000    -0.0418069  
C75      C      0.669390000000     0.509800000000     0.459460000000    -0.00984919 
C76      C      0.640800000000     0.504460000000     0.028320000000     0.0805385  
C77      C      0.626010000000     0.474930000000     0.063330000000    -0.185005   
C78      C      0.224060000000     0.813370000000     0.382810000000    -0.0121235  
C79      C      0.232670000000     0.740940000000     0.345140000000    -0.0421821  
C80      C      0.271430000000     0.812600000000     0.392960000000    -0.0107506  
C81      C      0.280180000000     0.740730000000     0.356120000000     0.0801443  
C82      C      0.298450000000     0.692650000000     0.354630000000    -0.185963   
C83      C      0.263550000000     0.811280000000     0.143150000000    -0.0130806  
C84      C      0.205220000000     0.753710000000     0.135170000000    -0.0413829  
C85      C      0.264270000000     0.817710000000     0.097990000000    -0.0102971  
C86      C      0.205580000000     0.762180000000     0.090150000000     0.0792377  
C87      C      0.186420000000     0.721770000000     0.067900000000    -0.183845   
C88      C      0.479190000000     0.721190000000     0.467730000000    -0.0126707  
C89      C      0.475820000000     0.738540000000     0.040280000000    -0.0405286  
C90      C      0.515800000000     0.688480000000     0.475770000000    -0.0105205  
C91      C      0.512820000000     0.705630000000     0.048450000000     0.0783941  
C92      C      0.536340000000     0.719380000000     0.086710000000    -0.184442   
C93      C      0.238720000000     0.310930000000     0.341400000000    -0.0132902  
C94      C      0.246760000000     0.233420000000     0.371470000000    -0.0419152  
C95      C      0.285600000000     0.320350000000     0.350330000000    -0.0101761  
C96      C      0.293970000000     0.243200000000     0.379320000000     0.0796986  
C97      C      0.311530000000     0.212570000000     0.412650000000    -0.184619   
C98      C      0.232270000000     0.305530000000     0.087700000000    -0.0132909  
C99      C      0.290640000000     0.247980000000     0.092080000000    -0.0408255  
C100     C      0.234490000000     0.311190000000     0.132820000000    -0.0102238  
C101     C      0.293550000000     0.255060000000     0.137120000000     0.0787921  
C102     C      0.313510000000     0.213530000000     0.157630000000    -0.183729   
C103     C      0.523590000000     0.323020000000     0.440960000000    -0.0121532  
C104     C      0.525710000000     0.295780000000     0.511100000000    -0.0407821  
C105     C      0.491370000000     0.359330000000     0.951990000000    -0.0107923  
C106     C      0.494160000000     0.332740000000     0.023130000000     0.0800377  
C107     C      0.470250000000     0.317850000000     0.560710000000    -0.184477   
C108     C      0.350180000000     0.514880000000     0.526630000000    -0.0126774  
C109     C      0.289020000000     0.513620000000     0.477080000000    -0.0419064  
C110     C      0.327190000000     0.552030000000     0.049290000000    -0.010392   
C111     C      0.267130000000     0.550340000000     0.001490000000     0.0827199  
C112     C      0.234280000000     0.576360000000     0.476230000000    -0.185321   
C113     C      0.325540000000     0.443390000000     0.497390000000     0.402774   
C114     C      0.313020000000     0.313280000000     0.918750000000     0.413018   
C115     C      0.424180000000     0.348130000000     0.987340000000     0.41327    
C116     C      0.294860000000     0.311160000000     0.543950000000     0.403657   
C117     C      0.308760000000     0.622440000000     0.013820000000     0.414011   
C118     C      0.274740000000     0.754030000000     0.552410000000     0.414026   
C119     C      0.410290000000     0.720640000000     0.502460000000     0.403942   
C120     C      0.300190000000     0.746910000000     0.929240000000     0.410981   
C121     C      0.591380000000     0.321460000000     0.478410000000     0.404573   
C122     C      0.719080000000     0.312010000000     0.922710000000     0.403912   
C123     C      0.663300000000     0.434520000000     0.990320000000     0.413518   
C124     C      0.716500000000     0.309780000000     0.547610000000     0.412404   
C125     C      0.681230000000     0.613620000000     0.509160000000     0.402704   
C126     C      0.702100000000     0.744630000000     0.944230000000     0.400618   
C127     C      0.582840000000     0.703490000000     0.011090000000     0.415819   
C128     C      0.709580000000     0.748300000000     0.568220000000     0.405226   
C129     C      0.857840000000     0.134460000000     0.750210000000     0.412875   
C130     C      0.794400000000     0.266080000000     0.787030000000     0.415675   
C131     C      0.931930000000     0.249350000000     0.747940000000     0.413117   
C132     C      0.816840000000     0.246240000000     0.666770000000     0.402044   
C133     C      0.905300000000     0.854780000000     0.758090000000     0.403086   
C134     C      0.783300000000     0.835880000000     0.825780000000     0.408104   
C135     C      0.820750000000     0.958200000000     0.753110000000     0.402801   
C136     C      0.773140000000     0.823700000000     0.702860000000     0.414277   
C137     C      0.075580000000     0.829890000000     0.756370000000     0.412429   
C138     C      0.201170000000     0.811710000000     0.687330000000     0.405835   
C139     C      0.169270000000     0.937620000000     0.745550000000     0.413289   
C140     C      0.196370000000     0.806740000000     0.814260000000     0.403902   
C141     C      0.097680000000     0.218790000000     0.742250000000     0.404825   
C142     C      0.214200000000     0.243470000000     0.804920000000     0.403392   
C143     C      0.190400000000     0.117250000000     0.725370000000     0.401903   
C144     C      0.227900000000     0.247880000000     0.680200000000     0.414118   
C145     C      0.163380000000     0.046410000000     0.695830000000    -0.0129841  
C146     C      0.226590000000     0.045090000000     0.740790000000    -0.0406765  
C147     C      0.141650000000     0.010710000000     0.721770000000    -0.0109323  
C148     C      0.204820000000     0.010310000000     0.767940000000     0.0794365  
C149     C      0.238640000000     0.983110000000     0.791090000000    -0.184729   
C150     C      0.971760000000     0.847790000000     0.720190000000    -0.0129285  
C151     C      0.973270000000     0.853920000000     0.795040000000    -0.0412112  
C152     C      0.007590000000     0.812990000000     0.722950000000    -0.0100208  
C153     C      0.008330000000     0.817870000000     0.796530000000     0.0790188  
C154     C      0.033850000000     0.821000000000     0.835530000000    -0.184762   
C155     C      0.834330000000     0.027520000000     0.713750000000    -0.0130586  
C156     C      0.813790000000     0.032390000000     0.785650000000    -0.0415612  
C157     C      0.871500000000     0.059580000000     0.721780000000    -0.0100065  
C158     C      0.851780000000     0.063800000000     0.793100000000     0.0796257  
C159     C      0.844880000000     0.092580000000     0.830310000000    -0.184401   
C160     C      0.030020000000     0.236240000000     0.708160000000    -0.0122959  
C161     C      0.031880000000     0.217410000000     0.781760000000    -0.0419147  
C162     C      0.998320000000     0.273900000000     0.716700000000    -0.00984902 
C163     C      0.999860000000     0.255700000000     0.788550000000     0.079993   
C164     C      0.975410000000     0.248540000000     0.827420000000    -0.185442   
C165     C      0.757820000000     0.746680000000     0.893080000000    -0.0129113  
C166     C      0.696260000000     0.800500000000     0.889370000000    -0.0411868  
C167     C      0.788070000000     0.785580000000     0.884050000000    -0.010552   
C168     C      0.727140000000     0.839380000000     0.879820000000     0.0782701  
C169     C      0.703680000000     0.877070000000     0.856900000000    -0.184694   
C170     C      0.766020000000     0.750390000000     0.619750000000    -0.0131872  
C171     C      0.717750000000     0.816990000000     0.608960000000    -0.0412923  
C172     C      0.759790000000     0.754430000000     0.664640000000    -0.0104454  
C173     C      0.711040000000     0.819850000000     0.654060000000     0.0788486  
C174     C      0.697180000000     0.867760000000     0.665550000000    -0.184475   
C175     C      0.781410000000     0.317170000000     0.878610000000    -0.0127584  
C176     C      0.725770000000     0.257100000000     0.868210000000    -0.0413451  
C177     C      0.780220000000     0.327530000000     0.833980000000    -0.0101518  
C178     C      0.724410000000     0.269380000000     0.823830000000     0.0797843  
C179     C      0.706640000000     0.230150000000     0.799120000000    -0.184522   
C180     C      0.807480000000     0.301770000000     0.612240000000    -0.0127326  
C181     C      0.773360000000     0.225800000000     0.608060000000    -0.0410698  
C182     C      0.764780000000     0.324240000000     0.603660000000    -0.0103372  
C183     C      0.730110000000     0.248070000000     0.599220000000     0.0785146  
C184     C      0.701750000000     0.215230000000     0.575790000000    -0.184725   
C185     C      0.702000000000     0.544730000000     0.973110000000    -0.0137434  
C186     C      0.673800000000     0.539240000000     0.542400000000    -0.0417513  
C187     C      0.669390000000     0.509800000000     0.959460000000    -0.00982763 
C188     C      0.640800000000     0.504460000000     0.528320000000     0.0798071  
C189     C      0.626010000000     0.474930000000     0.563330000000    -0.18475    
C190     C      0.224060000000     0.813370000000     0.882810000000    -0.0120791  
C191     C      0.232670000000     0.740940000000     0.845140000000    -0.0421794  
C192     C      0.271430000000     0.812600000000     0.892960000000    -0.0107875  
C193     C      0.280180000000     0.740730000000     0.856120000000     0.0801473  
C194     C      0.298450000000     0.692650000000     0.854630000000    -0.185974   
C195     C      0.263550000000     0.811280000000     0.643150000000    -0.0130866  
C196     C      0.205220000000     0.753710000000     0.635170000000    -0.0413642  
C197     C      0.264270000000     0.817710000000     0.598000000000    -0.0102806  
C198     C      0.205580000000     0.762180000000     0.590150000000     0.0791902  
C199     C      0.186420000000     0.721770000000     0.567900000000    -0.183782   
C200     C      0.479190000000     0.721190000000     0.967730000000    -0.013246   
C201     C      0.475830000000     0.738540000000     0.540280000000    -0.0406156  
C202     C      0.515800000000     0.688480000000     0.975760000000    -0.0112337  
C203     C      0.512820000000     0.705630000000     0.548450000000     0.0782828  
C204     C      0.536340000000     0.719380000000     0.586710000000    -0.184382   
C205     C      0.238720000000     0.310930000000     0.841410000000    -0.0132876  
C206     C      0.246760000000     0.233420000000     0.871470000000    -0.0418742  
C207     C      0.285600000000     0.320350000000     0.850330000000    -0.0101858  
C208     C      0.293970000000     0.243200000000     0.879320000000     0.0796281  
C209     C      0.311530000000     0.212570000000     0.912650000000    -0.184524   
C210     C      0.232270000000     0.305530000000     0.587700000000    -0.013286   
C211     C      0.290640000000     0.247980000000     0.592080000000    -0.0408073  
C212     C      0.234490000000     0.311190000000     0.632820000000    -0.010223   
C213     C      0.293550000000     0.255050000000     0.637120000000     0.0787755  
C214     C      0.313510000000     0.213530000000     0.657630000000    -0.183705   
C215     C      0.523590000000     0.323020000000     0.940960000000    -0.0122618  
C216     C      0.525710000000     0.295780000000     0.011100000000    -0.0401742  
C217     C      0.491370000000     0.359330000000     0.451990000000    -0.0106962  
C218     C      0.494160000000     0.332750000000     0.523130000000     0.0794123  
C219     C      0.470250000000     0.317850000000     0.060700000000    -0.184594   
C220     C      0.350180000000     0.514870000000     0.026630000000    -0.0128711  
C221     C      0.289020000000     0.513620000000     0.977090000000    -0.0440062  
C222     C      0.327190000000     0.552030000000     0.549290000000    -0.0105953  
C223     C      0.267130000000     0.550340000000     0.501490000000     0.0805311  
C224     C      0.234280000000     0.576360000000     0.976230000000    -0.186748   
H1       H      0.257770000000     0.962000000000     0.270820000000     0.0827486  
H2       H      0.245760000000     0.026730000000     0.218510000000     0.0445909  
H3       H      0.180590000000     0.028790000000     0.171780000000     0.0385753  
H4       H      0.120980000000     0.989730000000     0.202420000000     0.046331   
H5       H      0.248570000000     0.066570000000     0.258420000000     0.0536704  
H6       H      0.260680000000     0.006420000000     0.306650000000     0.0628263  
H7       H      0.186930000000     0.029940000000     0.290340000000     0.0193054  
H8       H      0.138910000000     0.068470000000     0.181800000000     0.0464964  
H9       H      0.120780000000     0.028360000000     0.243110000000     0.0378522  
H10      H      0.223670000000     0.962090000000     0.314540000000     0.0855663  
H11      H      0.048670000000     0.854780000000     0.338870000000     0.0817616  
H12      H      0.988240000000     0.887890000000     0.295990000000     0.045251   
H13      H      0.986020000000     0.881360000000     0.213820000000     0.041299   
H14      H      0.026620000000     0.814690000000     0.195350000000     0.0482787  
H15      H      0.952910000000     0.850330000000     0.321700000000     0.0541622  
H16      H      0.012370000000     0.815700000000     0.361130000000     0.0632264  
H17      H      0.991890000000     0.784610000000     0.297300000000     0.0190017  
H18      H      0.950670000000     0.839100000000     0.194780000000     0.0476825  
H19      H      0.993010000000     0.778850000000     0.224430000000     0.0382009  
H20      H      0.058260000000     0.794020000000     0.337100000000     0.0812024  
H21      H      0.814850000000     0.112100000000     0.328210000000     0.0816209  
H22      H      0.785260000000     0.053430000000     0.279360000000     0.0449025  
H23      H      0.806920000000     0.047910000000     0.202930000000     0.0404783  
H24      H      0.878600000000     0.078860000000     0.194200000000     0.0476751  
H25      H      0.807390000000     0.011910000000     0.312750000000     0.0527356  
H26      H      0.842660000000     0.070210000000     0.356820000000     0.0618985  
H27      H      0.879350000000     0.041490000000     0.299980000000     0.0174939  
H28      H      0.843210000000     0.003760000000     0.189840000000     0.0469763  
H29      H      0.899920000000     0.038880000000     0.229260000000     0.0368952  
H30      H      0.872290000000     0.115470000000     0.335210000000     0.0786474  
H31      H      0.960330000000     0.214690000000     0.328620000000     0.0809175  
H32      H      0.014320000000     0.184960000000     0.279610000000     0.0451437  
H33      H      0.012030000000     0.205820000000     0.198760000000     0.0421041  
H34      H      0.978220000000     0.280110000000     0.189970000000     0.0490536  
H35      H      0.053820000000     0.214940000000     0.307700000000     0.0529197  
H36      H      0.997750000000     0.250710000000     0.353010000000     0.0631081  
H37      H      0.018890000000     0.287020000000     0.292620000000     0.0184168  
H38      H      0.050370000000     0.246900000000     0.182980000000     0.0495053  
H39      H      0.016430000000     0.305390000000     0.222620000000     0.0384849  
H40      H      0.951240000000     0.275420000000     0.331080000000     0.0823621  
H41      H      0.692600000000     0.865140000000     0.327410000000     0.0792958  
H42      H      0.683570000000     0.786820000000     0.361000000000     0.0449952  
H43      H      0.749750000000     0.729680000000     0.364700000000     0.041202   
H44      H      0.816450000000     0.771880000000     0.368930000000     0.0489335  
H45      H      0.669010000000     0.813680000000     0.406580000000     0.0526109  
H46      H      0.675370000000     0.887960000000     0.373780000000     0.0618637  
H47      H      0.736830000000     0.853950000000     0.408870000000     0.0184968  
H48      H      0.774350000000     0.721710000000     0.412520000000     0.049536   
H49      H      0.798970000000     0.800050000000     0.412730000000     0.0386448  
H50      H      0.724250000000     0.907280000000     0.353710000000     0.0854724  
H51      H      0.721790000000     0.893060000000     0.157680000000     0.0826389  
H52      H      0.743900000000     0.840290000000     0.100550000000     0.0455895  
H53      H      0.795410000000     0.768950000000     0.111690000000     0.0406653  
H54      H      0.788780000000     0.741780000000     0.180050000000     0.0474955  
H55      H      0.688520000000     0.828320000000     0.093090000000     0.0523717  
H56      H      0.667640000000     0.876970000000     0.149210000000     0.061627   
H57      H      0.683770000000     0.797300000000     0.160940000000     0.0175085  
H58      H      0.770750000000     0.714300000000     0.112210000000     0.0478863  
H59      H      0.733090000000     0.731980000000     0.173290000000     0.0377906  
H60      H      0.689710000000     0.869210000000     0.197670000000     0.0791888  
H61      H      0.724780000000     0.198540000000     0.304560000000     0.0817171  
H62      H      0.748210000000     0.228510000000     0.372730000000     0.0443149  
H63      H      0.807790000000     0.293080000000     0.384540000000     0.0388342  
H64      H      0.811730000000     0.340400000000     0.324620000000     0.0469241  
H65      H      0.693840000000     0.245710000000     0.377900000000     0.0532964  
H66      H      0.673220000000     0.223570000000     0.307660000000     0.0621187  
H67      H      0.701150000000     0.297490000000     0.320550000000     0.0187428  
H68      H      0.788460000000     0.348740000000     0.394990000000     0.047693   
H69      H      0.756730000000     0.354970000000     0.328630000000     0.0384875  
H70      H      0.706530000000     0.239080000000     0.267050000000     0.0787085  
H71      H      0.714660000000     0.209160000000     0.045710000000     0.0800512  
H72      H      0.788980000000     0.218110000000     0.079400000000     0.0447422  
H73      H      0.824270000000     0.297420000000     0.083610000000     0.0402654  
H74      H      0.770650000000     0.356890000000     0.088220000000     0.0476858  
H75      H      0.768640000000     0.193380000000     0.124290000000     0.0529804  
H76      H      0.700110000000     0.182200000000     0.091540000000     0.0619531  
H77      H      0.714630000000     0.253080000000     0.128460000000     0.0176245  
H78      H      0.827040000000     0.324270000000     0.131250000000     0.0487603  
H79      H      0.749550000000     0.331950000000     0.132490000000     0.0377926  
H80      H      0.668700000000     0.228090000000     0.073930000000     0.0856249  
H81      H      0.652970000000     0.456170000000     0.077020000000     0.0836442  
H82      H      0.702270000000     0.520880000000     0.053690000000     0.0477518  
H83      H      0.731910000000     0.526710000000     0.480860000000     0.0420179  
H84      H      0.682540000000     0.491020000000     0.433920000000     0.0483058  
H85      H      0.660710000000     0.559290000000     0.067250000000     0.0531999  
H86      H      0.612080000000     0.496610000000     0.086620000000     0.0625416  
H87      H      0.612530000000     0.524150000000     0.018320000000     0.0174882  
H88      H      0.708850000000     0.568350000000     0.448190000000     0.0497115  
H89      H      0.640670000000     0.528090000000     0.448690000000     0.0382382  
H90      H      0.600660000000     0.451360000000     0.053600000000     0.0803207  
H91      H      0.280560000000     0.669170000000     0.374180000000     0.0833336  
H92      H      0.215310000000     0.720260000000     0.367410000000     0.0443427  
H93      H      0.206590000000     0.797180000000     0.407680000000     0.0381066  
H94      H      0.276810000000     0.830690000000     0.421320000000     0.0464979  
H95      H      0.227890000000     0.725170000000     0.315590000000     0.0526692  
H96      H      0.295940000000     0.679650000000     0.323870000000     0.0631831  
H97      H      0.296490000000     0.760270000000     0.332340000000     0.0178714  
H98      H      0.213240000000     0.848980000000     0.380330000000     0.0465804  
H99      H      0.288600000000     0.831420000000     0.369340000000     0.0372617  
H100     H      0.332640000000     0.692790000000     0.362840000000     0.0826904  
H101     H      0.204020000000     0.690130000000     0.074730000000     0.0811574  
H102     H      0.225940000000     0.724260000000     0.142140000000     0.0461604  
H103     H      0.288580000000     0.786470000000     0.151510000000     0.039806   
H104     H      0.296820000000     0.827550000000     0.088900000000     0.0478339  
H105     H      0.172480000000     0.745150000000     0.144730000000     0.0547266  
H106     H      0.153030000000     0.716660000000     0.077270000000     0.0626647  
H107     H      0.183770000000     0.791130000000     0.084460000000     0.018589   
H108     H      0.271600000000     0.843850000000     0.157520000000     0.0456919  
H109     H      0.242740000000     0.846190000000     0.090140000000     0.0376802  
H110     H      0.185730000000     0.728480000000     0.035430000000     0.0792848  
H111     H      0.552690000000     0.752310000000     0.082810000000     0.0815481  
H112     H      0.488970000000     0.773110000000     0.036400000000     0.0449379  
H113     H      0.492800000000     0.754650000000     0.459780000000     0.039287   
H114     H      0.536130000000     0.687530000000     0.448980000000     0.0470092  
H115     H      0.454280000000     0.739030000000     0.066270000000     0.0534996  
H116     H      0.513430000000     0.722880000000     0.111400000000     0.0624175  
H117     H      0.498180000000     0.672120000000     0.054520000000     0.0189941  
H118     H      0.460440000000     0.709100000000     0.441830000000     0.0455571  
H119     H      0.502290000000     0.654130000000     0.480000000000     0.0374426  
H120     H      0.559140000000     0.692720000000     0.096060000000     0.0823985  
H121     H      0.293000000000     0.216170000000     0.440360000000     0.0825673  
H122     H      0.228510000000     0.242110000000     0.398490000000     0.0456589  
H123     H      0.219650000000     0.324010000000     0.366450000000     0.0400761  
H124     H      0.289980000000     0.357150000000     0.354970000000     0.0481366  
H125     H      0.242160000000     0.196840000000     0.365690000000     0.0545118  
H126     H      0.309280000000     0.176730000000     0.403460000000     0.0625388  
H127     H      0.311060000000     0.233450000000     0.351870000000     0.0175606  
H128     H      0.229050000000     0.329670000000     0.314110000000     0.0473406  
H129     H      0.304320000000     0.310860000000     0.323820000000     0.0371229  
H130     H      0.345610000000     0.219880000000     0.418180000000     0.0794256  
H131     H      0.294360000000     0.182680000000     0.152240000000     0.0813176  
H132     H      0.268730000000     0.219330000000     0.086160000000     0.0445381  
H133     H      0.207310000000     0.280190000000     0.080830000000     0.0400703  
H134     H      0.202560000000     0.320760000000     0.143670000000     0.0490928  
H135     H      0.322340000000     0.238810000000     0.080330000000     0.0533372  
H136     H      0.345700000000     0.207520000000     0.145540000000     0.0615242  
H137     H      0.316140000000     0.283450000000     0.141790000000     0.0183719  
H138     H      0.222750000000     0.338100000000     0.073700000000     0.0465536  
H139     H      0.256360000000     0.339660000000     0.139410000000     0.0380242  
H140     H      0.317530000000     0.219500000000     0.189940000000     0.0796726  
H141     H      0.449880000000     0.288030000000     0.554750000000     0.0823743  
H142     H      0.507570000000     0.264890000000     0.503180000000     0.0434395  
H143     H      0.505870000000     0.292600000000     0.431120000000     0.0377411  
H144     H      0.470550000000     0.366020000000     0.425840000000     0.0465135  
H145     H      0.547120000000     0.287150000000     0.036440000000     0.0522764  
H146     H      0.493270000000     0.308310000000     0.084460000000     0.0618301  
H147     H      0.513490000000     0.362680000000     0.031560000000     0.0184673  
H148     H      0.543140000000     0.335120000000     0.915710000000     0.0464805  
H149     H      0.509000000000     0.390990000000     0.958370000000     0.0379397  
H150     H      0.451250000000     0.346190000000     0.072570000000     0.0846551  
H151     H      0.248700000000     0.590570000000     0.448870000000     0.083313   
H152     H      0.305950000000     0.529870000000     0.451900000000     0.0466639  
H153     H      0.374150000000     0.530970000000     0.507050000000     0.0391204  
H154     H      0.350990000000     0.573280000000     0.564900000000     0.0455379  
H155     H      0.264560000000     0.490670000000     0.964430000000     0.0548423  
H156     H      0.208550000000     0.553060000000     0.466850000000     0.062708   
H157     H      0.248780000000     0.532340000000     0.024890000000     0.0177713  
H158     H      0.367470000000     0.493080000000     0.048340000000     0.0458838  
H159     H      0.307050000000     0.535760000000     0.072270000000     0.0368637  
H160     H      0.219440000000     0.603500000000     0.493940000000     0.0799589  
H161     H      0.257770000000     0.961990000000     0.770820000000     0.0826878  
H162     H      0.245760000000     0.026730000000     0.718510000000     0.0445376  
H163     H      0.180590000000     0.028790000000     0.671780000000     0.0384997  
H164     H      0.120980000000     0.989730000000     0.702420000000     0.046274   
H165     H      0.248570000000     0.066570000000     0.758420000000     0.0536161  
H166     H      0.260680000000     0.006420000000     0.806650000000     0.0627516  
H167     H      0.186930000000     0.029940000000     0.790340000000     0.019275   
H168     H      0.138910000000     0.068470000000     0.681800000000     0.0464334  
H169     H      0.120780000000     0.028350000000     0.743110000000     0.0378204  
H170     H      0.223670000000     0.962090000000     0.814540000000     0.0854921  
H171     H      0.048670000000     0.854780000000     0.838870000000     0.0816861  
H172     H      0.988240000000     0.887890000000     0.795990000000     0.0451881  
H173     H      0.986020000000     0.881360000000     0.713820000000     0.0412633  
H174     H      0.026620000000     0.814680000000     0.695350000000     0.0482069  
H175     H      0.952910000000     0.850330000000     0.821710000000     0.0540729  
H176     H      0.012370000000     0.815700000000     0.861130000000     0.0631094  
H177     H      0.991890000000     0.784610000000     0.797300000000     0.0189786  
H178     H      0.950670000000     0.839100000000     0.694780000000     0.0476255  
H179     H      0.993010000000     0.778840000000     0.724430000000     0.0381381  
H180     H      0.058260000000     0.794020000000     0.837100000000     0.0811268  
H181     H      0.814850000000     0.112100000000     0.828210000000     0.0815633  
H182     H      0.785260000000     0.053430000000     0.779360000000     0.0448715  
H183     H      0.806920000000     0.047910000000     0.702930000000     0.0404321  
H184     H      0.878600000000     0.078860000000     0.694200000000     0.0476411  
H185     H      0.807390000000     0.011910000000     0.812750000000     0.052685   
H186     H      0.842660000000     0.070210000000     0.856820000000     0.0617878  
H187     H      0.879350000000     0.041490000000     0.799980000000     0.0174673  
H188     H      0.843210000000     0.003760000000     0.689840000000     0.0469107  
H189     H      0.899920000000     0.038880000000     0.729260000000     0.0368797  
H190     H      0.872290000000     0.115470000000     0.835210000000     0.0785779  
H191     H      0.960330000000     0.214690000000     0.828610000000     0.0808476  
H192     H      0.014320000000     0.184960000000     0.779600000000     0.0451208  
H193     H      0.012030000000     0.205820000000     0.698760000000     0.0420534  
H194     H      0.978220000000     0.280110000000     0.689970000000     0.048993   
H195     H      0.053820000000     0.214940000000     0.807700000000     0.0528737  
H196     H      0.997750000000     0.250720000000     0.853010000000     0.062956   
H197     H      0.018890000000     0.287020000000     0.792620000000     0.018372   
H198     H      0.050370000000     0.246900000000     0.682980000000     0.049436   
H199     H      0.016430000000     0.305390000000     0.722620000000     0.0384372  
H200     H      0.951240000000     0.275420000000     0.831080000000     0.0822672  
H201     H      0.692600000000     0.865140000000     0.827410000000     0.0792944  
H202     H      0.683570000000     0.786810000000     0.861010000000     0.0450073  
H203     H      0.749750000000     0.729680000000     0.864700000000     0.0411749  
H204     H      0.816450000000     0.771880000000     0.868930000000     0.0488756  
H205     H      0.669010000000     0.813670000000     0.906590000000     0.0525452  
H206     H      0.675370000000     0.887960000000     0.873780000000     0.0617867  
H207     H      0.736830000000     0.853950000000     0.908880000000     0.0183561  
H208     H      0.774350000000     0.721710000000     0.912520000000     0.0494355  
H209     H      0.798970000000     0.800050000000     0.912730000000     0.038513   
H210     H      0.724250000000     0.907270000000     0.853710000000     0.0854544  
H211     H      0.721790000000     0.893060000000     0.657680000000     0.0825693  
H212     H      0.743900000000     0.840290000000     0.600550000000     0.0454607  
H213     H      0.795410000000     0.768950000000     0.611690000000     0.0405538  
H214     H      0.788780000000     0.741780000000     0.680050000000     0.0474635  
H215     H      0.688520000000     0.828320000000     0.593090000000     0.0522557  
H216     H      0.667640000000     0.876970000000     0.649210000000     0.0615443  
H217     H      0.683770000000     0.797300000000     0.660930000000     0.0175065  
H218     H      0.770740000000     0.714300000000     0.612210000000     0.0478091  
H219     H      0.733090000000     0.731980000000     0.673290000000     0.0377823  
H220     H      0.689710000000     0.869210000000     0.697670000000     0.0791549  
H221     H      0.724780000000     0.198540000000     0.804560000000     0.0816859  
H222     H      0.748210000000     0.228510000000     0.872730000000     0.0442212  
H223     H      0.807790000000     0.293080000000     0.884540000000     0.0387424  
H224     H      0.811730000000     0.340400000000     0.824620000000     0.0468867  
H225     H      0.693840000000     0.245710000000     0.877900000000     0.0532098  
H226     H      0.673220000000     0.223570000000     0.807660000000     0.0620806  
H227     H      0.701150000000     0.297490000000     0.820550000000     0.0187345  
H228     H      0.788460000000     0.348740000000     0.894990000000     0.0476008  
H229     H      0.756730000000     0.354970000000     0.828630000000     0.0384695  
H230     H      0.706530000000     0.239080000000     0.767050000000     0.0786955  
H231     H      0.714650000000     0.209160000000     0.545710000000     0.0798529  
H232     H      0.788980000000     0.218110000000     0.579400000000     0.0445972  
H233     H      0.824270000000     0.297420000000     0.583610000000     0.040107   
H234     H      0.770650000000     0.356900000000     0.588220000000     0.0475854  
H235     H      0.768640000000     0.193380000000     0.624280000000     0.0529236  
H236     H      0.700110000000     0.182200000000     0.591540000000     0.0618288  
H237     H      0.714630000000     0.253080000000     0.628450000000     0.0176191  
H238     H      0.827040000000     0.324270000000     0.631250000000     0.0486903  
H239     H      0.749550000000     0.331950000000     0.632490000000     0.0377851  
H240     H      0.668700000000     0.228090000000     0.573930000000     0.0854834  
H241     H      0.652970000000     0.456170000000     0.577020000000     0.0835248  
H242     H      0.702270000000     0.520880000000     0.553690000000     0.0475314  
H243     H      0.731910000000     0.526710000000     0.980860000000     0.0418684  
H244     H      0.682540000000     0.491020000000     0.933920000000     0.0482714  
H245     H      0.660710000000     0.559290000000     0.567250000000     0.0531691  
H246     H      0.612090000000     0.496610000000     0.586630000000     0.062438   
H247     H      0.612530000000     0.524150000000     0.518320000000     0.0173511  
H248     H      0.708850000000     0.568350000000     0.948190000000     0.0497248  
H249     H      0.640670000000     0.528090000000     0.948690000000     0.0380178  
H250     H      0.600660000000     0.451360000000     0.553600000000     0.0801097  
H251     H      0.280560000000     0.669170000000     0.874180000000     0.0832937  
H252     H      0.215310000000     0.720260000000     0.867410000000     0.0442827  
H253     H      0.206590000000     0.797180000000     0.907680000000     0.0379641  
H254     H      0.276810000000     0.830690000000     0.921320000000     0.0463575  
H255     H      0.227890000000     0.725170000000     0.815590000000     0.0526522  
H256     H      0.295940000000     0.679650000000     0.823860000000     0.0631314  
H257     H      0.296490000000     0.760270000000     0.832340000000     0.0178579  
H258     H      0.213240000000     0.848990000000     0.880330000000     0.046487   
H259     H      0.288600000000     0.831420000000     0.869340000000     0.0372228  
H260     H      0.332630000000     0.692790000000     0.862840000000     0.0826956  
H261     H      0.204010000000     0.690130000000     0.574730000000     0.0810377  
H262     H      0.225940000000     0.724260000000     0.642140000000     0.0461312  
H263     H      0.288580000000     0.786470000000     0.651510000000     0.0397832  
H264     H      0.296820000000     0.827560000000     0.588910000000     0.0477167  
H265     H      0.172480000000     0.745150000000     0.644730000000     0.0546802  
H266     H      0.153030000000     0.716660000000     0.577270000000     0.0625011  
H267     H      0.183770000000     0.791130000000     0.584460000000     0.0184859  
H268     H      0.271600000000     0.843850000000     0.657520000000     0.0456519  
H269     H      0.242740000000     0.846190000000     0.590140000000     0.0375483  
H270     H      0.185730000000     0.728480000000     0.535430000000     0.0790096  
H271     H      0.552690000000     0.752310000000     0.582810000000     0.0814674  
H272     H      0.488980000000     0.773110000000     0.536400000000     0.0447363  
H273     H      0.492800000000     0.754650000000     0.959780000000     0.0391265  
H274     H      0.536130000000     0.687530000000     0.948990000000     0.0470564  
H275     H      0.454280000000     0.739030000000     0.566270000000     0.0534822  
H276     H      0.513430000000     0.722890000000     0.611400000000     0.062374   
H277     H      0.498180000000     0.672120000000     0.554510000000     0.0188789  
H278     H      0.460440000000     0.709100000000     0.941830000000     0.0455577  
H279     H      0.502290000000     0.654130000000     0.980000000000     0.0372344  
H280     H      0.559140000000     0.692720000000     0.596060000000     0.0823678  
H281     H      0.293000000000     0.216170000000     0.940360000000     0.0823567  
H282     H      0.228510000000     0.242110000000     0.898490000000     0.04554    
H283     H      0.219660000000     0.324010000000     0.866450000000     0.0400071  
H284     H      0.289980000000     0.357150000000     0.854970000000     0.0481044  
H285     H      0.242160000000     0.196840000000     0.865690000000     0.0544445  
H286     H      0.309270000000     0.176730000000     0.903460000000     0.0624046  
H287     H      0.311060000000     0.233450000000     0.851870000000     0.0175593  
H288     H      0.229050000000     0.329670000000     0.814110000000     0.0473108  
H289     H      0.304320000000     0.310860000000     0.823820000000     0.0371158  
H290     H      0.345610000000     0.219880000000     0.918180000000     0.0792896  
H291     H      0.294360000000     0.182680000000     0.652240000000     0.0812522  
H292     H      0.268730000000     0.219330000000     0.586160000000     0.0443998  
H293     H      0.207310000000     0.280200000000     0.580830000000     0.0399232  
H294     H      0.202560000000     0.320760000000     0.643680000000     0.0490415  
H295     H      0.322340000000     0.238810000000     0.580330000000     0.0532252  
H296     H      0.345700000000     0.207520000000     0.645530000000     0.0614473  
H297     H      0.316140000000     0.283450000000     0.641790000000     0.0183728  
H298     H      0.222750000000     0.338100000000     0.573700000000     0.0464147  
H299     H      0.256360000000     0.339660000000     0.639410000000     0.0379913  
H300     H      0.317530000000     0.219490000000     0.689940000000     0.0796572  
H301     H      0.449880000000     0.288030000000     0.054750000000     0.0825308  
H302     H      0.507570000000     0.264880000000     0.003180000000     0.043675   
H303     H      0.505870000000     0.292600000000     0.931120000000     0.0376078  
H304     H      0.470550000000     0.366020000000     0.925840000000     0.0464912  
H305     H      0.547120000000     0.287160000000     0.536440000000     0.052288   
H306     H      0.493270000000     0.308310000000     0.584460000000     0.0618069  
H307     H      0.513490000000     0.362690000000     0.531560000000     0.0183321  
H308     H      0.543140000000     0.335120000000     0.415710000000     0.0464786  
H309     H      0.509000000000     0.390990000000     0.458370000000     0.0381375  
H310     H      0.451250000000     0.346190000000     0.572570000000     0.0845826  
H311     H      0.248700000000     0.590570000000     0.948870000000     0.0835079  
H312     H      0.305950000000     0.529870000000     0.951900000000     0.0468754  
H313     H      0.374150000000     0.530970000000     0.007050000000     0.0394795  
H314     H      0.350990000000     0.573280000000     0.064900000000     0.0455395  
H315     H      0.264560000000     0.490670000000     0.464430000000     0.054579   
H316     H      0.208550000000     0.553050000000     0.966850000000     0.0627713  
H317     H      0.248780000000     0.532340000000     0.524890000000     0.017929   
H318     H      0.367470000000     0.493080000000     0.548340000000     0.0457329  
H319     H      0.307050000000     0.535770000000     0.572270000000     0.03685    
H320     H      0.219440000000     0.603500000000     0.993940000000     0.0798945  
In1      In     0.338580000000     0.354280000000     0.486470000000     2.41205    
In2      In     0.324860000000     0.710910000000     0.499790000000     2.40251    
In3      In     0.673870000000     0.344160000000     0.484180000000     2.41908    
In4      In     0.669020000000     0.703830000000     0.508990000000     2.39712    
In5      In     0.849960000000     0.224480000000     0.238420000000     2.41714    
In6      In     0.820240000000     0.867190000000     0.258660000000     2.40103    
In7      In     0.159980000000     0.846660000000     0.250160000000     2.39777    
In8      In     0.182290000000     0.206780000000     0.237930000000     2.40962    
In9      In     0.338580000000     0.354280000000     0.986470000000     2.40867    
In10     In     0.324860000000     0.710910000000     0.999790000000     2.39947    
In11     In     0.673870000000     0.344160000000     0.984180000000     2.41559    
In12     In     0.669010000000     0.703830000000     0.008990000000     2.40047    
In13     In     0.849960000000     0.224480000000     0.738420000000     2.41715    
In14     In     0.820240000000     0.867190000000     0.758660000000     2.40112    
In15     In     0.159980000000     0.846660000000     0.750160000000     2.39745    
In16     In     0.182290000000     0.206780000000     0.737930000000     2.40959    
N1       N      0.173310000000     0.983780000000     0.244370000000    -0.179398   
N2       N      0.194000000000     0.071810000000     0.219950000000    -0.163883   
N3       N      0.033050000000     0.820440000000     0.259210000000    -0.179217   
N4       N      0.948450000000     0.850320000000     0.257890000000    -0.163415   
N5       N      0.861290000000     0.088700000000     0.255730000000    -0.179897   
N6       N      0.822310000000     0.004170000000     0.250770000000    -0.164345   
N7       N      0.973710000000     0.261400000000     0.252060000000    -0.179373   
N8       N      0.054840000000     0.224970000000     0.244230000000    -0.163565   
N9       N      0.765940000000     0.820950000000     0.360790000000    -0.177803   
N10      N      0.718580000000     0.764010000000     0.410810000000    -0.162839   
N11      N      0.749080000000     0.801360000000     0.175050000000    -0.179937   
N12      N      0.729900000000     0.770730000000     0.098150000000    -0.164442   
N13      N      0.766740000000     0.286900000000     0.312240000000    -0.180628   
N14      N      0.741230000000     0.296110000000     0.391090000000    -0.164492   
N15      N      0.736830000000     0.293550000000     0.080970000000    -0.179305   
N16      N      0.800360000000     0.257240000000     0.130390000000    -0.163359   
N17      N      0.657670000000     0.480310000000     0.493160000000    -0.179594   
N18      N      0.686320000000     0.567890000000     0.008600000000    -0.162658   
N19      N      0.286310000000     0.765410000000     0.394020000000    -0.1794     
N20      N      0.216290000000     0.787510000000     0.346290000000    -0.164452   
N21      N      0.248960000000     0.776420000000     0.078350000000    -0.179283   
N22      N      0.222120000000     0.793520000000     0.155930000000    -0.164052   
N23      N      0.539270000000     0.701260000000     0.512140000000    -0.179198   
N24      N      0.453350000000     0.725940000000     0.003590000000    -0.163926   
N25      N      0.299550000000     0.292650000000     0.384590000000    -0.179947   
N26      N      0.231730000000     0.261920000000     0.338220000000    -0.163822   
N27      N      0.251290000000     0.269640000000     0.151710000000    -0.179629   
N28      N      0.273240000000     0.288960000000     0.073080000000    -0.164375   
N29      N      0.467660000000     0.345720000000     0.487910000000    -0.179507   
N30      N      0.549200000000     0.311500000000     0.976170000000    -0.164568   
N31      N      0.300130000000     0.577870000000     0.521530000000    -0.179713   
N32      N      0.320330000000     0.488840000000     0.001720000000    -0.162025   
N33      N      0.173310000000     0.983790000000     0.744370000000    -0.17935    
N34      N      0.194000000000     0.071810000000     0.719950000000    -0.163906   
N35      N      0.033050000000     0.820440000000     0.759210000000    -0.179223   
N36      N      0.948450000000     0.850320000000     0.757900000000    -0.16349    
N37      N      0.861290000000     0.088700000000     0.755730000000    -0.179843   
N38      N      0.822310000000     0.004170000000     0.750770000000    -0.164363   
N39      N      0.973710000000     0.261390000000     0.752060000000    -0.179387   
N40      N      0.054840000000     0.224970000000     0.744230000000    -0.163583   
N41      N      0.765930000000     0.820950000000     0.860790000000    -0.177806   
N42      N      0.718580000000     0.764000000000     0.910810000000    -0.162898   
N43      N      0.749080000000     0.801360000000     0.675050000000    -0.179922   
N44      N      0.729900000000     0.770730000000     0.598150000000    -0.164482   
N45      N      0.766740000000     0.286900000000     0.812240000000    -0.180636   
N46      N      0.741230000000     0.296100000000     0.891090000000    -0.164522   
N47      N      0.736830000000     0.293550000000     0.580970000000    -0.179362   
N48      N      0.800360000000     0.257240000000     0.630390000000    -0.163385   
N49      N      0.657670000000     0.480310000000     0.993160000000    -0.179937   
N50      N      0.686320000000     0.567890000000     0.508600000000    -0.16301    
N51      N      0.286310000000     0.765410000000     0.894010000000    -0.179354   
N52      N      0.216290000000     0.787510000000     0.846290000000    -0.164451   
N53      N      0.248960000000     0.776420000000     0.578350000000    -0.179319   
N54      N      0.222120000000     0.793520000000     0.655930000000    -0.164062   
N55      N      0.539270000000     0.701260000000     0.012140000000    -0.178905   
N56      N      0.453350000000     0.725940000000     0.503590000000    -0.16427    
N57      N      0.299550000000     0.292650000000     0.884590000000    -0.179955   
N58      N      0.231730000000     0.261920000000     0.838220000000    -0.163842   
N59      N      0.251290000000     0.269640000000     0.651710000000    -0.179634   
N60      N      0.273240000000     0.288960000000     0.573080000000    -0.164443   
N61      N      0.467660000000     0.345710000000     0.987910000000    -0.179859   
N62      N      0.549200000000     0.311500000000     0.476170000000    -0.164333   
N63      N      0.300130000000     0.577870000000     0.021530000000    -0.179992   
N64      N      0.320330000000     0.488840000000     0.501720000000    -0.16344    
O1       O      0.280830000000     0.346190000000     0.026810000000    -0.507704   
O2       O      0.330660000000     0.298260000000     0.032160000000    -0.499275   
O3       O      0.316830000000     0.355530000000     0.421500000000    -0.498989   
O4       O      0.303060000000     0.420170000000     0.474020000000    -0.495315   
O5       O      0.401550000000     0.340100000000     0.017150000000    -0.505329   
O6       O      0.353960000000     0.421470000000     0.015730000000    -0.508386   
O7       O      0.322160000000     0.292150000000     0.450160000000    -0.519538   
O8       O      0.403310000000     0.359300000000     0.456660000000    -0.512326   
O9       O      0.309630000000     0.705870000000     0.433650000000    -0.501313   
O10      O      0.303770000000     0.769810000000     0.460510000000    -0.511687   
O11      O      0.264290000000     0.717980000000     0.035470000000    -0.51841    
O12      O      0.289640000000     0.645320000000     0.987630000000    -0.505637   
O13      O      0.390380000000     0.710360000000     0.471200000000    -0.511011   
O14      O      0.336810000000     0.644160000000     0.532600000000    -0.510823   
O15      O      0.311190000000     0.768140000000     0.043210000000    -0.494397   
O16      O      0.387190000000     0.725780000000     0.032520000000    -0.496812   
O17      O      0.690020000000     0.287370000000     0.027740000000    -0.509738   
O18      O      0.722130000000     0.349380000000     0.034680000000    -0.509509   
O19      O      0.684830000000     0.294420000000     0.434100000000    -0.509563   
O20      O      0.613150000000     0.314660000000     0.509450000000    -0.504048   
O21      O      0.655200000000     0.407190000000     0.018000000000    -0.514005   
O22      O      0.611320000000     0.339380000000     0.950030000000    -0.50435    
O23      O      0.730930000000     0.345720000000     0.442590000000    -0.503526   
O24      O      0.677250000000     0.416070000000     0.459380000000    -0.504308   
O25      O      0.719420000000     0.708800000000     0.058130000000    -0.503401   
O26      O      0.679420000000     0.765410000000     0.048450000000    -0.506946   
O27      O      0.720610000000     0.713070000000     0.462760000000    -0.496674   
O28      O      0.688760000000     0.638330000000     0.479420000000    -0.494403   
O29      O      0.605780000000     0.711470000000     0.040970000000    -0.511469   
O30      O      0.667940000000     0.634430000000     0.039150000000    -0.501638   
O31      O      0.666930000000     0.756280000000     0.458670000000    -0.49793    
O32      O      0.603590000000     0.696670000000     0.479820000000    -0.505585   
O33      O      0.811060000000     0.208240000000     0.182970000000    -0.502016   
O34      O      0.839010000000     0.273340000000     0.186830000000    -0.500905   
O35      O      0.786310000000     0.229650000000     0.269630000000    -0.517864   
O36      O      0.845110000000     0.161010000000     0.276580000000    -0.51432    
O37      O      0.912900000000     0.250660000000     0.214890000000    -0.504476   
O38      O      0.866630000000     0.153560000000     0.217690000000    -0.505631   
O39      O      0.830760000000     0.281690000000     0.279750000000    -0.510508   
O40      O      0.909420000000     0.235430000000     0.276210000000    -0.513707   
O41      O      0.804080000000     0.805460000000     0.220770000000    -0.507218   
O42      O      0.766510000000     0.863840000000     0.212980000000    -0.516332   
O43      O      0.816810000000     0.819140000000     0.311770000000    -0.499256   
O44      O      0.884730000000     0.861480000000     0.289450000000    -0.500723   
O45      O      0.828130000000     0.933150000000     0.223870000000    -0.502844   
O46      O      0.882900000000     0.853550000000     0.226890000000    -0.499293   
O47      O      0.768130000000     0.867800000000     0.305230000000    -0.505322   
O48      O      0.812530000000     0.937380000000     0.284900000000    -0.501402   
O49      O      0.190930000000     0.786360000000     0.281870000000    -0.505603   
O50      O      0.182690000000     0.846710000000     0.314470000000    -0.496507   
O51      O      0.166920000000     0.795590000000     0.200340000000    -0.49776    
O52      O      0.094340000000     0.832630000000     0.223490000000    -0.496655   
O53      O      0.194180000000     0.912110000000     0.264480000000    -0.506044   
O54      O      0.099450000000     0.836300000000     0.285910000000    -0.515574   
O55      O      0.214670000000     0.845680000000     0.205880000000    -0.507772   
O56      O      0.139630000000     0.916930000000     0.228020000000    -0.508125   
O57      O      0.239610000000     0.212100000000     0.197370000000    -0.520448   
O58      O      0.192570000000     0.262500000000     0.191790000000    -0.49781    
O59      O      0.208550000000     0.201580000000     0.301110000000    -0.495909   
O60      O      0.118040000000     0.223520000000     0.210380000000    -0.498106   
O61      O      0.162080000000     0.140770000000     0.208500000000    -0.505898   
O62      O      0.119990000000     0.207740000000     0.272030000000    -0.51004    
O63      O      0.203120000000     0.266900000000     0.275210000000    -0.508573   
O64      O      0.214740000000     0.138930000000     0.248200000000    -0.495863   
O65      O      0.280830000000     0.346200000000     0.526820000000    -0.508443   
O66      O      0.330660000000     0.298260000000     0.532150000000    -0.500055   
O67      O      0.316830000000     0.355520000000     0.921500000000    -0.498874   
O68      O      0.303060000000     0.420170000000     0.974020000000    -0.494642   
O69      O      0.401550000000     0.340100000000     0.517160000000    -0.506591   
O70      O      0.353960000000     0.421480000000     0.515720000000    -0.510254   
O71      O      0.322160000000     0.292140000000     0.950160000000    -0.51938    
O72      O      0.403310000000     0.359300000000     0.956660000000    -0.511904   
O73      O      0.309630000000     0.705870000000     0.933650000000    -0.501135   
O74      O      0.303770000000     0.769810000000     0.960510000000    -0.511663   
O75      O      0.264290000000     0.717980000000     0.535460000000    -0.519172   
O76      O      0.289640000000     0.645320000000     0.487630000000    -0.504848   
O77      O      0.390380000000     0.710360000000     0.971200000000    -0.511721   
O78      O      0.336820000000     0.644160000000     0.032600000000    -0.510378   
O79      O      0.311190000000     0.768150000000     0.543210000000    -0.494958   
O80      O      0.387190000000     0.725780000000     0.532520000000    -0.497149   
O81      O      0.690020000000     0.287370000000     0.527740000000    -0.510484   
O82      O      0.722130000000     0.349380000000     0.534680000000    -0.510297   
O83      O      0.684830000000     0.294420000000     0.934100000000    -0.509443   
O84      O      0.613150000000     0.314660000000     0.009450000000    -0.502504   
O85      O      0.655200000000     0.407190000000     0.518000000000    -0.5155     
O86      O      0.611320000000     0.339380000000     0.450040000000    -0.50507    
O87      O      0.730930000000     0.345720000000     0.942590000000    -0.50334    
O88      O      0.677250000000     0.416070000000     0.959380000000    -0.503792   
O89      O      0.719420000000     0.708800000000     0.558130000000    -0.50337    
O90      O      0.679420000000     0.765410000000     0.548450000000    -0.506902   
O91      O      0.720610000000     0.713070000000     0.962760000000    -0.497268   
O92      O      0.688770000000     0.638330000000     0.979420000000    -0.495778   
O93      O      0.605780000000     0.711470000000     0.540970000000    -0.510845   
O94      O      0.667940000000     0.634430000000     0.539150000000    -0.501135   
O95      O      0.666930000000     0.756290000000     0.958680000000    -0.498613   
O96      O      0.603590000000     0.696670000000     0.979820000000    -0.507234   
O97      O      0.811060000000     0.208240000000     0.682970000000    -0.502042   
O98      O      0.839010000000     0.273340000000     0.686830000000    -0.500935   
O99      O      0.786310000000     0.229650000000     0.769630000000    -0.517873   
O100     O      0.845110000000     0.161010000000     0.776580000000    -0.51427    
O101     O      0.912900000000     0.250660000000     0.714890000000    -0.504494   
O102     O      0.866630000000     0.153560000000     0.717680000000    -0.505481   
O103     O      0.830760000000     0.281690000000     0.779750000000    -0.510518   
O104     O      0.909410000000     0.235430000000     0.776210000000    -0.513759   
O105     O      0.804080000000     0.805460000000     0.720770000000    -0.507231   
O106     O      0.766510000000     0.863840000000     0.712980000000    -0.516353   
O107     O      0.816810000000     0.819140000000     0.811760000000    -0.499345   
O108     O      0.884740000000     0.861480000000     0.789450000000    -0.50078    
O109     O      0.828130000000     0.933150000000     0.723870000000    -0.502891   
O110     O      0.882900000000     0.853550000000     0.726900000000    -0.499567   
O111     O      0.768130000000     0.867800000000     0.805230000000    -0.505318   
O112     O      0.812530000000     0.937380000000     0.784900000000    -0.501452   
O113     O      0.190930000000     0.786360000000     0.781870000000    -0.505578   
O114     O      0.182690000000     0.846710000000     0.814480000000    -0.496377   
O115     O      0.166920000000     0.795590000000     0.700340000000    -0.497758   
O116     O      0.094340000000     0.832630000000     0.723490000000    -0.496673   
O117     O      0.194180000000     0.912110000000     0.764480000000    -0.506052   
O118     O      0.099450000000     0.836300000000     0.785910000000    -0.515581   
O119     O      0.214670000000     0.845680000000     0.705880000000    -0.50777    
O120     O      0.139630000000     0.916940000000     0.728020000000    -0.508069   
O121     O      0.239610000000     0.212100000000     0.697370000000    -0.520464   
O122     O      0.192570000000     0.262500000000     0.691790000000    -0.497845   
O123     O      0.208550000000     0.201580000000     0.801110000000    -0.495935   
O124     O      0.118040000000     0.223520000000     0.710380000000    -0.498074   
O125     O      0.162080000000     0.140770000000     0.708500000000    -0.505938   
O126     O      0.119990000000     0.207740000000     0.772030000000    -0.510142   
O127     O      0.203120000000     0.266900000000     0.775210000000    -0.508587   
O128     O      0.214740000000     0.138930000000     0.748200000000    -0.495882   


