data_structure

_audit_creation_method RASPA-1.0
_audit_creation_date 2023-5-22
_audit_author_name 'Poobodin Mano'

_cell_length_a    38.5144
_cell_length_b    35.9959
_cell_length_c    27.7467
_cell_angle_alpha 90.0397
_cell_angle_beta  90.0039
_cell_angle_gamma 120.065
_cell_volume      33291.5

_symmetry_cell_setting          triclinic
_symmetry_space_group_name_Hall 'P 1'
_symmetry_space_group_name_H-M  'P 1'
_symmetry_Int_Tables_number     1

_symmetry_equiv_pos_as_xyz 'x,y,z'

loop_
_atom_site_label
_atom_site_type_symbol
_atom_site_fract_x
_atom_site_fract_y
_atom_site_fract_z
_atom_site_charge
C1       C      0.441450000000     0.281990000000     0.467160000000     0.397772   
C2       C      0.383350000000     0.263110000000     0.633420000000     0.400776   
C3       C      0.497550000000     0.332540000000     0.594130000000     0.39926    
C4       C      0.375550000000     0.329680000000     0.525110000000     0.398719   
C5       C      0.407130000000     0.315910000000     0.138780000000     0.401183   
C6       C      0.438500000000     0.262250000000     0.289610000000     0.40214    
C7       C      0.367240000000     0.311540000000     0.278670000000     0.400084   
C8       C      0.366260000000     0.193280000000     0.183550000000     0.39958    
C9       C      0.261540000000     0.442540000000     0.622800000000     0.399493   
C10      C      0.223550000000     0.447300000000     0.450230000000     0.398262   
C11      C      0.271280000000     0.383970000000     0.501680000000     0.398191   
C12      C      0.150680000000     0.386580000000     0.564810000000     0.397256   
C13      C      0.267910000000     0.405150000000     0.121530000000     0.396798   
C14      C      0.249540000000     0.472770000000     0.270760000000     0.400623   
C15      C      0.313250000000     0.411800000000     0.252500000000     0.397133   
C16      C      0.313910000000     0.530230000000     0.154980000000     0.399135   
C17      C      0.234190000000     0.364080000000     0.957910000000     0.406809   
C18      C      0.251340000000     0.436900000000     0.813320000000     0.406613   
C19      C      0.141150000000     0.379260000000     0.900160000000     0.406204   
C20      C      0.258630000000     0.492690000000     0.954820000000     0.404756   
C21      C      0.408980000000     0.296260000000     0.967390000000     0.405147   
C22      C      0.393630000000     0.240730000000     0.817080000000     0.411004   
C23      C      0.489460000000     0.259220000000     0.912430000000     0.402392   
C24      C      0.360060000000     0.156990000000     0.944080000000     0.405397   
C25      C      0.290090000000     0.099330000000     0.948270000000    -0.0108383  
C26      C      0.348280000000     0.085970000000     0.967970000000    -0.0101267  
C27      C      0.263040000000     0.060670000000     0.979660000000    -0.00860188 
C28      C      0.318610000000     0.047190000000     0.997850000000    -0.0112761  
C29      C      0.053760000000     0.299030000000     0.955970000000    -0.00981535 
C30      C      0.052960000000     0.283460000000     0.868060000000    -0.010311   
C31      C      0.077420000000     0.347370000000     0.945670000000    -0.00962755 
C32      C      0.077580000000     0.331650000000     0.857230000000    -0.00998085 
C33      C      0.216790000000     0.349160000000     0.070240000000    -0.00844541 
C34      C      0.293290000000     0.388440000000     0.048940000000    -0.00966105 
C35      C      0.211220000000     0.318070000000     0.029350000000    -0.00888145 
C36      C      0.282310000000     0.355710000000     0.008080000000    -0.00877548 
C37      C      0.284160000000     0.489970000000     0.747810000000    -0.0124349  
C38      C      0.270060000000     0.412780000000     0.740590000000    -0.00811462 
C39      C      0.275460000000     0.489180000000     0.693440000000    -0.00919412 
C40      C      0.293010000000     0.430090000000     0.693540000000    -0.0106086  
C41      C      0.259860000000     0.501310000000     0.388320000000    -0.00984818 
C42      C      0.194330000000     0.430080000000     0.369620000000    -0.00843744 
C43      C      0.253950000000     0.518090000000     0.340170000000    -0.00875956 
C44      C      0.190900000000     0.451100000000     0.323440000000    -0.0109508  
C45      C      0.369670000000     0.100280000000     0.129210000000    -0.00974467 
C46      C      0.299940000000     0.086530000000     0.128330000000    -0.0108703  
C47      C      0.382310000000     0.136950000000     0.165310000000    -0.0100848  
C48      C      0.309600000000     0.121200000000     0.166330000000    -0.00933518 
C49      C      0.311230000000     0.317280000000     0.314070000000    -0.0095261  
C50      C      0.379760000000     0.379080000000     0.316930000000    -0.00918497 
C51      C      0.297170000000     0.340630000000     0.280200000000    -0.00993846 
C52      C      0.369930000000     0.405340000000     0.281950000000    -0.00963701 
C53      C      0.378540000000     0.337920000000     0.072350000000    -0.0115899  
C54      C      0.451290000000     0.356730000000     0.071000000000    -0.00951505 
C55      C      0.370750000000     0.315480000000     0.023250000000    -0.00959185 
C56      C      0.446280000000     0.361820000000     0.016820000000    -0.0114596  
C57      C      0.384180000000     0.281060000000     0.752110000000    -0.00972767 
C58      C      0.386000000000     0.212100000000     0.734720000000    -0.00979305 
C59      C      0.354760000000     0.269310000000     0.710360000000    -0.00841651 
C60      C      0.357560000000     0.203550000000     0.692120000000    -0.0109349  
C61      C      0.097100000000     0.403930000000     0.576660000000    -0.0105812  
C62      C      0.082850000000     0.326680000000     0.582600000000    -0.0101585  
C63      C      0.064630000000     0.393340000000     0.614600000000    -0.0102531  
C64      C      0.551230000000     0.318610000000     0.620890000000    -0.0102312  
C65      C      0.281370000000     0.323110000000     0.480270000000    -0.00940305 
C66      C      0.337930000000     0.397980000000     0.474510000000    -0.00932652 
C67      C      0.305370000000     0.311430000000     0.514930000000    -0.0109794  
C68      C      0.362760000000     0.389200000000     0.510850000000    -0.0101594  
C69      C      0.441040000000     0.220070000000     0.357860000000    -0.00730903 
C70      C      0.493560000000     0.295490000000     0.348230000000    -0.0107886  
C71      C      0.423140000000     0.229640000000     0.402040000000    -0.010049   
C72      C      0.478370000000     0.309500000000     0.391670000000    -0.00905158 
C73      C      0.441810000000     0.782230000000     0.467200000000     0.397505   
C74      C      0.383010000000     0.762960000000     0.633040000000     0.400475   
C75      C      0.497340000000     0.832570000000     0.594360000000     0.39935    
C76      C      0.375390000000     0.829540000000     0.524770000000     0.39862    
C77      C      0.407190000000     0.814940000000     0.138940000000     0.401175   
C78      C      0.439210000000     0.762350000000     0.290010000000     0.402153   
C79      C      0.367540000000     0.811270000000     0.279030000000     0.400362   
C80      C      0.366380000000     0.692570000000     0.184840000000     0.399979   
C81      C      0.261150000000     0.941790000000     0.622550000000     0.399124   
C82      C      0.222880000000     0.946390000000     0.450000000000     0.398015   
C83      C      0.270840000000     0.883430000000     0.501420000000     0.398199   
C84      C      0.150270000000     0.886170000000     0.564830000000     0.397098   
C85      C      0.267910000000     0.904690000000     0.121220000000     0.396879   
C86      C      0.249070000000     0.971730000000     0.270540000000     0.400814   
C87      C      0.313280000000     0.911290000000     0.252360000000     0.397031   
C88      C      0.313740000000     0.029830000000     0.155370000000     0.399436   
C89      C      0.234260000000     0.863850000000     0.957610000000     0.40648    
C90      C      0.251190000000     0.936360000000     0.813040000000     0.406541   
C91      C      0.141050000000     0.878840000000     0.899940000000     0.405956   
C92      C      0.258580000000     0.992610000000     0.954180000000     0.405061   
C93      C      0.408900000000     0.795120000000     0.967050000000     0.405553   
C94      C      0.393520000000     0.740210000000     0.816350000000     0.41096    
C95      C      0.489450000000     0.758460000000     0.911470000000     0.402567   
C96      C      0.359980000000     0.656010000000     0.942640000000     0.405686   
C97      C      0.289920000000     0.598330000000     0.947200000000    -0.010892   
C98      C      0.347980000000     0.584830000000     0.966630000000    -0.0102358  
C99      C      0.263310000000     0.560810000000     0.980230000000    -0.00836008 
C100     C      0.318730000000     0.547240000000     0.998250000000    -0.0110698  
C101     C      0.053690000000     0.797990000000     0.955200000000    -0.00986742 
C102     C      0.053020000000     0.783210000000     0.867090000000    -0.0102719  
C103     C      0.077290000000     0.846420000000     0.945430000000    -0.00958605 
C104     C      0.077540000000     0.831500000000     0.856770000000    -0.0100081  
C105     C      0.216870000000     0.848650000000     0.069890000000    -0.00844652 
C106     C      0.293380000000     0.888160000000     0.048580000000    -0.00967554 
C107     C      0.211380000000     0.817670000000     0.028920000000    -0.00889023 
C108     C      0.282470000000     0.855520000000     0.007630000000    -0.00884698 
C109     C      0.284140000000     0.989340000000     0.747490000000    -0.0125129  
C110     C      0.269720000000     0.912030000000     0.740330000000    -0.00808301 
C111     C      0.275400000000     0.988550000000     0.693140000000    -0.00911176 
C112     C      0.292610000000     0.929220000000     0.693220000000    -0.0105562  
C113     C      0.259080000000     0.000380000000     0.388040000000    -0.0098699  
C114     C      0.193760000000     0.928930000000     0.369350000000    -0.00842598 
C115     C      0.253110000000     0.017010000000     0.339820000000    -0.00873045 
C116     C      0.190280000000     0.949780000000     0.323050000000    -0.0109865  
C117     C      0.369900000000     0.600580000000     0.128900000000    -0.00932545 
C118     C      0.300370000000     0.587010000000     0.127830000000    -0.0107641  
C119     C      0.382150000000     0.635950000000     0.166620000000    -0.0100281  
C120     C      0.309620000000     0.620550000000     0.167130000000    -0.00932395 
C121     C      0.311510000000     0.817050000000     0.314280000000    -0.00944782 
C122     C      0.380000000000     0.878940000000     0.316900000000    -0.00919211 
C123     C      0.297370000000     0.840220000000     0.280230000000    -0.0100077  
C124     C      0.370070000000     0.905020000000     0.281770000000    -0.00965058 
C125     C      0.378420000000     0.836530000000     0.072310000000    -0.0116355  
C126     C      0.451200000000     0.855410000000     0.070920000000    -0.00958364 
C127     C      0.370640000000     0.813980000000     0.023280000000    -0.009569   
C128     C      0.446160000000     0.860520000000     0.016750000000    -0.011432   
C129     C      0.383880000000     0.780660000000     0.751670000000    -0.00971244 
C130     C      0.385650000000     0.711710000000     0.733910000000    -0.009827   
C131     C      0.354380000000     0.768990000000     0.710020000000    -0.00834897 
C132     C      0.357080000000     0.703230000000     0.691490000000    -0.0109269  
C133     C      0.096840000000     0.903750000000     0.576770000000    -0.0107325  
C134     C      0.082440000000     0.826440000000     0.582990000000    -0.0101488  
C135     C      0.064450000000     0.893330000000     0.614770000000    -0.0101587  
C136     C      0.550920000000     0.818580000000     0.621350000000    -0.0102376  
C137     C      0.281060000000     0.822670000000     0.479920000000    -0.00933862 
C138     C      0.337510000000     0.897600000000     0.474110000000    -0.00939061 
C139     C      0.305150000000     0.811070000000     0.514510000000    -0.0110755  
C140     C      0.362420000000     0.888920000000     0.510430000000    -0.0100865  
C141     C      0.442250000000     0.720440000000     0.358200000000    -0.00728089 
C142     C      0.494330000000     0.796020000000     0.348490000000    -0.010867   
C143     C      0.424120000000     0.729810000000     0.402300000000    -0.00999071 
C144     C      0.478930000000     0.809860000000     0.391870000000    -0.00901278 
C145     C      0.941450000000     0.281990000000     0.467160000000     0.397784   
C146     C      0.883350000000     0.263110000000     0.633420000000     0.400639   
C147     C      0.997550000000     0.332540000000     0.594130000000     0.399371   
C148     C      0.875550000000     0.329680000000     0.525110000000     0.398671   
C149     C      0.907130000000     0.315910000000     0.138780000000     0.401183   
C150     C      0.938500000000     0.262250000000     0.289610000000     0.402152   
C151     C      0.867240000000     0.311540000000     0.278670000000     0.400082   
C152     C      0.866260000000     0.193280000000     0.183550000000     0.39958    
C153     C      0.761540000000     0.442540000000     0.622800000000     0.399494   
C154     C      0.723550000000     0.447300000000     0.450230000000     0.398244   
C155     C      0.771280000000     0.383970000000     0.501680000000     0.398187   
C156     C      0.650680000000     0.386580000000     0.564810000000     0.397257   
C157     C      0.767910000000     0.405150000000     0.121530000000     0.396797   
C158     C      0.749540000000     0.472770000000     0.270760000000     0.400622   
C159     C      0.813250000000     0.411800000000     0.252500000000     0.397131   
C160     C      0.813910000000     0.530230000000     0.154980000000     0.399134   
C161     C      0.734200000000     0.364080000000     0.957910000000     0.406775   
C162     C      0.751340000000     0.436900000000     0.813320000000     0.406613   
C163     C      0.641150000000     0.379260000000     0.900160000000     0.406205   
C164     C      0.758630000000     0.492690000000     0.954820000000     0.404756   
C165     C      0.908980000000     0.296260000000     0.967390000000     0.405147   
C166     C      0.893630000000     0.240730000000     0.817080000000     0.411008   
C167     C      0.989460000000     0.259220000000     0.912430000000     0.402507   
C168     C      0.860060000000     0.156990000000     0.944080000000     0.405395   
C169     C      0.790090000000     0.099330000000     0.948270000000    -0.0108397  
C170     C      0.848280000000     0.085970000000     0.967970000000    -0.0101501  
C171     C      0.763040000000     0.060670000000     0.979660000000    -0.0086018  
C172     C      0.818610000000     0.047190000000     0.997850000000    -0.0112685  
C173     C      0.553760000000     0.299030000000     0.955970000000    -0.00981397 
C174     C      0.552960000000     0.283460000000     0.868060000000    -0.0103053  
C175     C      0.577420000000     0.347370000000     0.945670000000    -0.0096278  
C176     C      0.577580000000     0.331650000000     0.857230000000    -0.00999414 
C177     C      0.716790000000     0.349160000000     0.070240000000    -0.00844949 
C178     C      0.793290000000     0.388440000000     0.048940000000    -0.00964974 
C179     C      0.711220000000     0.318070000000     0.029350000000    -0.00886669 
C180     C      0.782310000000     0.355710000000     0.008080000000    -0.00881039 
C181     C      0.784160000000     0.489970000000     0.747810000000    -0.0124614  
C182     C      0.770060000000     0.412780000000     0.740590000000    -0.00811535 
C183     C      0.775460000000     0.489180000000     0.693440000000    -0.00918419 
C184     C      0.793010000000     0.430090000000     0.693540000000    -0.0106081  
C185     C      0.759860000000     0.501310000000     0.388320000000    -0.0098829  
C186     C      0.694330000000     0.430080000000     0.369620000000    -0.00841594 
C187     C      0.753950000000     0.518090000000     0.340170000000    -0.00874716 
C188     C      0.690900000000     0.451100000000     0.323440000000    -0.0109581  
C189     C      0.869660000000     0.100280000000     0.129210000000    -0.00968584 
C190     C      0.799940000000     0.086530000000     0.128330000000    -0.0109093  
C191     C      0.882300000000     0.136950000000     0.165310000000    -0.0100319  
C192     C      0.809600000000     0.121200000000     0.166330000000    -0.00932306 
C193     C      0.811230000000     0.317280000000     0.314070000000    -0.00952631 
C194     C      0.879760000000     0.379080000000     0.316930000000    -0.00918567 
C195     C      0.797170000000     0.340630000000     0.280200000000    -0.00993921 
C196     C      0.869930000000     0.405340000000     0.281950000000    -0.00963758 
C197     C      0.878540000000     0.337920000000     0.072350000000    -0.0115904  
C198     C      0.951290000000     0.356730000000     0.071000000000    -0.00951611 
C199     C      0.870750000000     0.315480000000     0.023250000000    -0.00959168 
C200     C      0.946280000000     0.361820000000     0.016820000000    -0.0114599  
C201     C      0.884180000000     0.281060000000     0.752110000000    -0.00972609 
C202     C      0.886000000000     0.212100000000     0.734720000000    -0.00978021 
C203     C      0.854760000000     0.269310000000     0.710360000000    -0.0084205  
C204     C      0.857570000000     0.203550000000     0.692120000000    -0.0109623  
C205     C      0.597100000000     0.403930000000     0.576660000000    -0.0105786  
C206     C      0.582850000000     0.326680000000     0.582600000000    -0.0101564  
C207     C      0.564630000000     0.393340000000     0.614600000000    -0.0102545  
C208     C      0.051230000000     0.318610000000     0.620890000000    -0.0102306  
C209     C      0.781370000000     0.323110000000     0.480270000000    -0.00940631 
C210     C      0.837940000000     0.397980000000     0.474510000000    -0.00938894 
C211     C      0.805370000000     0.311430000000     0.514930000000    -0.0109969  
C212     C      0.862760000000     0.389200000000     0.510850000000    -0.0101262  
C213     C      0.941040000000     0.220070000000     0.357860000000    -0.00730369 
C214     C      0.993560000000     0.295490000000     0.348230000000    -0.0105384  
C215     C      0.923140000000     0.229640000000     0.402040000000    -0.0100486  
C216     C      0.978370000000     0.309500000000     0.391670000000    -0.00898217 
C217     C      0.941810000000     0.782230000000     0.467200000000     0.397516   
C218     C      0.883010000000     0.762960000000     0.633040000000     0.400475   
C219     C      0.997340000000     0.832570000000     0.594360000000     0.399465   
C220     C      0.875390000000     0.829540000000     0.524770000000     0.398618   
C221     C      0.907190000000     0.814940000000     0.138940000000     0.401176   
C222     C      0.939220000000     0.762350000000     0.290010000000     0.402134   
C223     C      0.867540000000     0.811270000000     0.279030000000     0.400361   
C224     C      0.866380000000     0.692570000000     0.184840000000     0.399978   
C225     C      0.761150000000     0.941790000000     0.622550000000     0.399157   
C226     C      0.722880000000     0.946390000000     0.450000000000     0.398016   
C227     C      0.770840000000     0.883430000000     0.501420000000     0.398198   
C228     C      0.650270000000     0.886170000000     0.564830000000     0.397101   
C229     C      0.767910000000     0.904690000000     0.121220000000     0.396877   
C230     C      0.749070000000     0.971730000000     0.270540000000     0.400814   
C231     C      0.813280000000     0.911290000000     0.252360000000     0.396956   
C232     C      0.813740000000     0.029830000000     0.155370000000     0.399434   
C233     C      0.734260000000     0.863850000000     0.957610000000     0.40679    
C234     C      0.751190000000     0.936360000000     0.813040000000     0.406788   
C235     C      0.641050000000     0.878840000000     0.899940000000     0.405956   
C236     C      0.758580000000     0.992610000000     0.954180000000     0.405065   
C237     C      0.908900000000     0.795120000000     0.967050000000     0.405275   
C238     C      0.893520000000     0.740210000000     0.816350000000     0.410964   
C239     C      0.989450000000     0.758460000000     0.911470000000     0.402682   
C240     C      0.859980000000     0.656010000000     0.942640000000     0.405685   
C241     C      0.789920000000     0.598330000000     0.947200000000    -0.0108922  
C242     C      0.847980000000     0.584830000000     0.966630000000    -0.0102376  
C243     C      0.763310000000     0.560810000000     0.980230000000    -0.00836078 
C244     C      0.818730000000     0.547240000000     0.998250000000    -0.0110691  
C245     C      0.553690000000     0.797990000000     0.955200000000    -0.00986733 
C246     C      0.553020000000     0.783210000000     0.867090000000    -0.010272   
C247     C      0.577290000000     0.846420000000     0.945430000000    -0.00958574 
C248     C      0.577540000000     0.831500000000     0.856770000000    -0.0100069  
C249     C      0.716870000000     0.848650000000     0.069890000000    -0.00845241 
C250     C      0.793380000000     0.888160000000     0.048580000000    -0.0096807  
C251     C      0.711380000000     0.817670000000     0.028920000000    -0.00887388 
C252     C      0.782470000000     0.855520000000     0.007630000000    -0.00883634 
C253     C      0.784140000000     0.989340000000     0.747490000000    -0.012513   
C254     C      0.769720000000     0.912030000000     0.740330000000    -0.00806795 
C255     C      0.775400000000     0.988550000000     0.693140000000    -0.00907319 
C256     C      0.792610000000     0.929220000000     0.693220000000    -0.0105651  
C257     C      0.759080000000     0.000380000000     0.388040000000    -0.00986998 
C258     C      0.693760000000     0.928930000000     0.369350000000    -0.00842545 
C259     C      0.753110000000     0.017010000000     0.339820000000    -0.0087311  
C260     C      0.690280000000     0.949780000000     0.323050000000    -0.010988   
C261     C      0.869900000000     0.600580000000     0.128900000000    -0.00932553 
C262     C      0.800370000000     0.587010000000     0.127830000000    -0.0107645  
C263     C      0.882150000000     0.635950000000     0.166620000000    -0.0100292  
C264     C      0.809620000000     0.620550000000     0.167130000000    -0.00932427 
C265     C      0.811510000000     0.817050000000     0.314280000000    -0.00943593 
C266     C      0.880000000000     0.878940000000     0.316900000000    -0.00920584 
C267     C      0.797370000000     0.840220000000     0.280230000000    -0.0100422  
C268     C      0.870070000000     0.905020000000     0.281770000000    -0.00961132 
C269     C      0.878420000000     0.836530000000     0.072310000000    -0.0116324  
C270     C      0.951200000000     0.855410000000     0.070920000000    -0.0095795  
C271     C      0.870640000000     0.813980000000     0.023280000000    -0.00957916 
C272     C      0.946160000000     0.860520000000     0.016750000000    -0.0114466  
C273     C      0.883880000000     0.780660000000     0.751670000000    -0.00971394 
C274     C      0.885650000000     0.711710000000     0.733910000000    -0.00982894 
C275     C      0.854380000000     0.768990000000     0.710020000000    -0.00834787 
C276     C      0.857080000000     0.703230000000     0.691490000000    -0.0109255  
C277     C      0.596850000000     0.903750000000     0.576770000000    -0.0106829  
C278     C      0.582430000000     0.826440000000     0.582990000000    -0.01013    
C279     C      0.564460000000     0.893330000000     0.614770000000    -0.0101499  
C280     C      0.050920000000     0.818580000000     0.621350000000    -0.010232   
C281     C      0.781060000000     0.822670000000     0.479920000000    -0.00933915 
C282     C      0.837510000000     0.897600000000     0.474110000000    -0.00939015 
C283     C      0.805150000000     0.811070000000     0.514510000000    -0.0110758  
C284     C      0.862420000000     0.888920000000     0.510430000000    -0.0100879  
C285     C      0.942250000000     0.720440000000     0.358200000000    -0.00729421 
C286     C      0.994330000000     0.796020000000     0.348490000000    -0.0105969  
C287     C      0.924120000000     0.729810000000     0.402300000000    -0.00998279 
C288     C      0.978930000000     0.809860000000     0.391870000000    -0.00894575 
H1       H      0.353650000000     0.074150000000     0.933290000000     0.0437253  
H2       H      0.283560000000     0.089620000000     0.909790000000     0.0459882  
H3       H      0.231490000000     0.045910000000     0.966930000000     0.0488078  
H4       H      0.377460000000     0.102760000000     0.987400000000     0.045171   
H5       H      0.327790000000     0.522380000000     0.999510000000     0.0491885  
H6       H      0.319570000000     0.057970000000     0.035530000000     0.041043   
H7       H      0.282140000000     0.124700000000     0.954580000000     0.0488347  
H8       H      0.264290000000     0.072070000000     0.017220000000     0.0372128  
H9       H      0.074160000000     0.271280000000     0.873050000000     0.0422702  
H10      H      0.075520000000     0.288000000000     0.963560000000     0.0440549  
H11      H      0.096880000000     0.364280000000     0.977110000000     0.0517672  
H12      H      0.533330000000     0.266300000000     0.836810000000     0.0487445  
H13      H      0.097270000000     0.337030000000     0.825610000000     0.0479207  
H14      H      0.056390000000     0.342940000000     0.847480000000     0.041586   
H15      H      0.534850000000     0.292920000000     0.988550000000     0.0515023  
H16      H      0.055690000000     0.358910000000     0.941280000000     0.0443801  
H17      H      0.304610000000     0.420740000000     0.032670000000     0.051291   
H18      H      0.202190000000     0.367920000000     0.059730000000     0.0490322  
H19      H      0.180210000000     0.303320000000     0.014700000000     0.0471719  
H20      H      0.318730000000     0.390130000000     0.069800000000     0.0431235  
H21      H      0.304190000000     0.370110000000     0.978010000000     0.0467053  
H22      H      0.284100000000     0.327730000000     0.021990000000     0.0347117  
H23      H      0.200740000000     0.330460000000     0.102850000000     0.0456888  
H24      H      0.215440000000     0.291840000000     0.044080000000     0.0376031  
H25      H      0.285120000000     0.399200000000     0.762740000000     0.0432944  
H26      H      0.317220000000     0.507080000000     0.753060000000     0.0387255  
H27      H      0.297180000000     0.520540000000     0.677020000000     0.0423247  
H28      H      0.239320000000     0.386000000000     0.732550000000     0.0494542  
H29      H      0.325190000000     0.452040000000     0.702230000000     0.0388869  
H30      H      0.291130000000     0.403150000000     0.671860000000     0.0488311  
H31      H      0.272750000000     0.508940000000     0.766780000000     0.0479555  
H32      H      0.245110000000     0.485250000000     0.688660000000     0.0459392  
H33      H      0.203500000000     0.406230000000     0.359840000000     0.0469208  
H34      H      0.285220000000     0.495030000000     0.384490000000     0.0473376  
H35      H      0.283540000000     0.542200000000     0.325070000000     0.0481109  
H36      H      0.164140000000     0.411930000000     0.386540000000     0.0461362  
H37      H      0.173720000000     0.426020000000     0.295900000000     0.050159   
H38      H      0.174140000000     0.468080000000     0.331680000000     0.040199   
H39      H      0.268960000000     0.526880000000     0.416070000000     0.0487711  
H40      H      0.236490000000     0.534560000000     0.346960000000     0.0393091  
H41      H      0.305290000000     0.101790000000     0.092200000000     0.03791    
H42      H      0.374750000000     0.114010000000     0.092260000000     0.0377108  
H43      H      0.412770000000     0.163250000000     0.155330000000     0.0507244  
H44      H      0.268150000000     0.561820000000     0.129170000000     0.0484982  
H45      H      0.292190000000     0.137470000000     0.158170000000     0.0466715  
H46      H      0.299680000000     0.105550000000     0.202160000000     0.0466987  
H47      H      0.388700000000     0.085360000000     0.133770000000     0.0481437  
H48      H      0.384760000000     0.125230000000     0.201510000000     0.0469965  
H49      H      0.373670000000     0.385650000000     0.354230000000     0.036445   
H50      H      0.306620000000     0.324230000000     0.351860000000     0.0364899  
H51      H      0.267690000000     0.335320000000     0.293200000000     0.0479575  
H52      H      0.412160000000     0.389360000000     0.314500000000     0.0485452  
H53      H      0.384110000000     0.439020000000     0.295140000000     0.0458214  
H54      H      0.383690000000     0.406250000000     0.246400000000     0.04692    
H55      H      0.292860000000     0.282030000000     0.308300000000     0.0481844  
H56      H      0.291860000000     0.325480000000     0.243950000000     0.0467617  
H57      H      0.471920000000     0.388620000000     0.087160000000     0.0398083  
H58      H      0.386710000000     0.371890000000     0.066290000000     0.0366604  
H59      H      0.354410000000     0.326420000000     0.999460000000     0.0362264  
H60      H      0.465450000000     0.336550000000     0.075640000000     0.0513206  
H61      H      0.444530000000     0.391450000000     0.011430000000     0.0380831  
H62      H      0.473130000000     0.366040000000     0.997060000000     0.0493386  
H63      H      0.350540000000     0.322620000000     0.094100000000     0.0479844  
H64      H      0.350930000000     0.280340000000     0.028720000000     0.0515017  
H65      H      0.417000000000     0.225630000000     0.720460000000     0.0450996  
H66      H      0.414600000000     0.305410000000     0.739400000000     0.0458731  
H67      H      0.356990000000     0.298870000000     0.694740000000     0.0481057  
H68      H      0.377760000000     0.180930000000     0.752140000000     0.0479181  
H69      H      0.363300000000     0.185640000000     0.663510000000     0.0499088  
H70      H      0.326200000000     0.183200000000     0.705000000000     0.0403565  
H71      H      0.375400000000     0.296100000000     0.781100000000     0.0477153  
H72      H      0.323820000000     0.249150000000     0.724650000000     0.0394788  
H73      H      0.067430000000     0.314110000000     0.547490000000     0.0452001  
H74      H      0.084080000000     0.402660000000     0.540510000000     0.0450072  
H75      H      0.550840000000     0.413710000000     0.608850000000     0.0493721  
H76      H      0.098030000000     0.308340000000     0.592340000000     0.0480308  
H77      H      0.527530000000     0.284180000000     0.620530000000     0.0493722  
H78      H      0.566020000000     0.325870000000     0.656830000000     0.0394115  
H79      H      0.121690000000     0.437500000000     0.582560000000     0.0506761  
H80      H      0.079090000000     0.401010000000     0.650740000000     0.0399615  
H81      H      0.345070000000     0.391370000000     0.437750000000     0.0374089  
H82      H      0.286920000000     0.316090000000     0.442940000000     0.0374912  
H83      H      0.298950000000     0.278410000000     0.506260000000     0.0502109  
H84      H      0.346610000000     0.432420000000     0.476170000000     0.0496532  
H85      H      0.394940000000     0.408140000000     0.500460000000     0.0475179  
H86      H      0.359480000000     0.400520000000     0.546950000000     0.0467571  
H87      H      0.248770000000     0.302710000000     0.487870000000     0.0491399  
H88      H      0.294290000000     0.310640000000     0.552140000000     0.0453449  
H89      H      0.516010000000     0.286870000000     0.361000000000     0.0398224  
H90      H      0.464410000000     0.212700000000     0.370260000000     0.038697   
H91      H      0.416230000000     0.204560000000     0.429760000000     0.0485096  
H92      H      0.508590000000     0.322510000000     0.322270000000     0.0495911  
H93      H      0.504650000000     0.332840000000     0.413320000000     0.0464196  
H94      H      0.463200000000     0.326900000000     0.378310000000     0.0464345  
H95      H      0.417430000000     0.191300000000     0.338690000000     0.0475287  
H96      H      0.394130000000     0.227060000000     0.391580000000     0.0487925  
H97      H      0.352060000000     0.571790000000     0.932110000000     0.0436318  
H98      H      0.282850000000     0.587310000000     0.909150000000     0.0459632  
H99      H      0.231480000000     0.545850000000     0.968540000000     0.0486874  
H100     H      0.377680000000     0.601710000000     0.984900000000     0.0455797  
H101     H      0.328050000000     0.022630000000     0.998130000000     0.0492914  
H102     H      0.320410000000     0.558750000000     0.035710000000     0.0413367  
H103     H      0.282120000000     0.623940000000     0.952390000000     0.0491571  
H104     H      0.264890000000     0.572940000000     0.017490000000     0.0371054  
H105     H      0.074280000000     0.771080000000     0.871790000000     0.0422178  
H106     H      0.075480000000     0.786960000000     0.962520000000     0.04402    
H107     H      0.096720000000     0.863080000000     0.976980000000     0.0517221  
H108     H      0.533440000000     0.766280000000     0.835720000000     0.0487256  
H109     H      0.097250000000     0.837210000000     0.825090000000     0.0479329  
H110     H      0.056290000000     0.842790000000     0.847330000000     0.0416425  
H111     H      0.534730000000     0.791560000000     0.987790000000     0.0514377  
H112     H      0.055520000000     0.857950000000     0.941350000000     0.0443702  
H113     H      0.304670000000     0.920480000000     0.032400000000     0.0512038  
H114     H      0.202170000000     0.867340000000     0.059490000000     0.0490797  
H115     H      0.180360000000     0.802890000000     0.014270000000     0.0471686  
H116     H      0.318830000000     0.889860000000     0.069420000000     0.0431194  
H117     H      0.304330000000     0.870020000000     0.977570000000     0.0467803  
H118     H      0.284330000000     0.827550000000     0.021450000000     0.0346895  
H119     H      0.200880000000     0.829860000000     0.102480000000     0.0456551  
H120     H      0.215680000000     0.791470000000     0.043540000000     0.0375671  
H121     H      0.284740000000     0.898390000000     0.762470000000     0.0432882  
H122     H      0.317210000000     0.006310000000     0.752680000000     0.0387728  
H123     H      0.297200000000     0.019850000000     0.676670000000     0.0423436  
H124     H      0.238930000000     0.885310000000     0.732370000000     0.0494692  
H125     H      0.324820000000     0.951050000000     0.701830000000     0.0388723  
H126     H      0.290570000000     0.902190000000     0.671550000000     0.0488233  
H127     H      0.272890000000     0.008450000000     0.766470000000     0.0480835  
H128     H      0.245100000000     0.984800000000     0.688410000000     0.0459507  
H129     H      0.203070000000     0.905170000000     0.359730000000     0.0469117  
H130     H      0.284540000000     0.994260000000     0.384310000000     0.0474133  
H131     H      0.282680000000     0.041220000000     0.324750000000     0.0481411  
H132     H      0.163550000000     0.910690000000     0.386220000000     0.046104   
H133     H      0.173250000000     0.924620000000     0.295540000000     0.0501634  
H134     H      0.173350000000     0.966600000000     0.331130000000     0.0401955  
H135     H      0.268040000000     0.025960000000     0.415730000000     0.0487996  
H136     H      0.235490000000     0.033310000000     0.346480000000     0.0393028  
H137     H      0.305800000000     0.602790000000     0.092000000000     0.037733   
H138     H      0.375480000000     0.615110000000     0.092330000000     0.0376959  
H139     H      0.412950000000     0.662310000000     0.158020000000     0.0509151  
H140     H      0.267750000000     0.061420000000     0.130780000000     0.0486259  
H141     H      0.292250000000     0.637010000000     0.159770000000     0.0468816  
H142     H      0.299470000000     0.603890000000     0.202420000000     0.0464612  
H143     H      0.388800000000     0.585400000000     0.132410000000     0.0478485  
H144     H      0.383570000000     0.622770000000     0.202330000000     0.0471136  
H145     H      0.373950000000     0.885630000000     0.354170000000     0.0364609  
H146     H      0.306910000000     0.824150000000     0.352020000000     0.0364717  
H147     H      0.267860000000     0.834870000000     0.293170000000     0.0479694  
H148     H      0.412410000000     0.889260000000     0.314440000000     0.0485313  
H149     H      0.384240000000     0.938750000000     0.294800000000     0.0458671  
H150     H      0.383790000000     0.905810000000     0.246230000000     0.0468342  
H151     H      0.293170000000     0.781770000000     0.308690000000     0.0481661  
H152     H      0.292110000000     0.824980000000     0.244050000000     0.0467089  
H153     H      0.471910000000     0.887280000000     0.087070000000     0.0398565  
H154     H      0.386510000000     0.870460000000     0.066160000000     0.0366674  
H155     H      0.354090000000     0.824670000000     0.999520000000     0.0362936  
H156     H      0.465280000000     0.835150000000     0.075520000000     0.0512071  
H157     H      0.444370000000     0.890140000000     0.011410000000     0.0380982  
H158     H      0.473020000000     0.864800000000     0.996970000000     0.0492982  
H159     H      0.350440000000     0.821210000000     0.094090000000     0.0479926  
H160     H      0.351020000000     0.778830000000     0.028880000000     0.0514181  
H161     H      0.416590000000     0.725240000000     0.719490000000     0.04522    
H162     H      0.414270000000     0.805060000000     0.738930000000     0.0459173  
H163     H      0.356600000000     0.798590000000     0.694510000000     0.0480556  
H164     H      0.377450000000     0.680510000000     0.751220000000     0.0479323  
H165     H      0.362680000000     0.685320000000     0.662750000000     0.0499874  
H166     H      0.325750000000     0.682920000000     0.704500000000     0.0403406  
H167     H      0.375140000000     0.795610000000     0.780800000000     0.0477285  
H168     H      0.323460000000     0.748820000000     0.724370000000     0.0394408  
H169     H      0.066920000000     0.813770000000     0.547940000000     0.0452074  
H170     H      0.083780000000     0.902430000000     0.540640000000     0.0450241  
H171     H      0.550700000000     0.913740000000     0.608960000000     0.0493269  
H172     H      0.097580000000     0.808080000000     0.592780000000     0.048019   
H173     H      0.527180000000     0.784170000000     0.621170000000     0.0493826  
H174     H      0.565800000000     0.825960000000     0.657240000000     0.0394129  
H175     H      0.121500000000     0.937290000000     0.582560000000     0.0507353  
H176     H      0.078970000000     0.901080000000     0.650880000000     0.039945   
H177     H      0.344640000000     0.891000000000     0.437350000000     0.0374393  
H178     H      0.286590000000     0.815670000000     0.442570000000     0.0374548  
H179     H      0.298830000000     0.778090000000     0.505780000000     0.0502386  
H180     H      0.346120000000     0.932020000000     0.475760000000     0.0496864  
H181     H      0.394590000000     0.907920000000     0.500010000000     0.0474682  
H182     H      0.359120000000     0.900220000000     0.546540000000     0.0467556  
H183     H      0.248480000000     0.802210000000     0.487570000000     0.049118   
H184     H      0.294070000000     0.810190000000     0.551730000000     0.0453496  
H185     H      0.516950000000     0.787670000000     0.361300000000     0.0398087  
H186     H      0.465810000000     0.713390000000     0.370680000000     0.0386646  
H187     H      0.417450000000     0.704850000000     0.430100000000     0.0484699  
H188     H      0.509190000000     0.823020000000     0.322480000000     0.0495694  
H189     H      0.505120000000     0.833290000000     0.413570000000     0.0463548  
H190     H      0.463650000000     0.827120000000     0.378450000000     0.0464275  
H191     H      0.418810000000     0.691540000000     0.339040000000     0.047518   
H192     H      0.394960000000     0.726830000000     0.391780000000     0.0489415  
H193     H      0.853640000000     0.074150000000     0.933290000000     0.0437446  
H194     H      0.783560000000     0.089620000000     0.909790000000     0.0459903  
H195     H      0.731490000000     0.045910000000     0.966930000000     0.0488135  
H196     H      0.877460000000     0.102760000000     0.987400000000     0.0451854  
H197     H      0.827790000000     0.522380000000     0.999510000000     0.0491915  
H198     H      0.819570000000     0.057970000000     0.035530000000     0.0410421  
H199     H      0.782140000000     0.124700000000     0.954580000000     0.0488382  
H200     H      0.764290000000     0.072070000000     0.017220000000     0.0372159  
H201     H      0.574160000000     0.271280000000     0.873050000000     0.0422843  
H202     H      0.575520000000     0.288000000000     0.963560000000     0.0440688  
H203     H      0.596880000000     0.364280000000     0.977110000000     0.0517801  
H204     H      0.033330000000     0.266300000000     0.836810000000     0.0487055  
H205     H      0.597260000000     0.337030000000     0.825610000000     0.0479296  
H206     H      0.556390000000     0.342940000000     0.847480000000     0.0416152  
H207     H      0.034850000000     0.292920000000     0.988550000000     0.0514581  
H208     H      0.555690000000     0.358910000000     0.941280000000     0.0444123  
H209     H      0.804610000000     0.420740000000     0.032670000000     0.0512893  
H210     H      0.702190000000     0.367920000000     0.059730000000     0.0490383  
H211     H      0.680210000000     0.303320000000     0.014700000000     0.0471763  
H212     H      0.818730000000     0.390130000000     0.069800000000     0.0431234  
H213     H      0.804180000000     0.370110000000     0.978010000000     0.0467237  
H214     H      0.784100000000     0.327730000000     0.021990000000     0.0347227  
H215     H      0.700740000000     0.330460000000     0.102850000000     0.0456976  
H216     H      0.715440000000     0.291840000000     0.044080000000     0.0376064  
H217     H      0.785120000000     0.399200000000     0.762740000000     0.0432979  
H218     H      0.817220000000     0.507080000000     0.753060000000     0.0387352  
H219     H      0.797180000000     0.520540000000     0.677020000000     0.0423268  
H220     H      0.739320000000     0.386000000000     0.732550000000     0.0494575  
H221     H      0.825190000000     0.452040000000     0.702230000000     0.0388928  
H222     H      0.791130000000     0.403150000000     0.671860000000     0.0488338  
H223     H      0.772760000000     0.508940000000     0.766780000000     0.0479678  
H224     H      0.745110000000     0.485250000000     0.688660000000     0.0459412  
H225     H      0.703500000000     0.406230000000     0.359840000000     0.046916   
H226     H      0.785220000000     0.495030000000     0.384490000000     0.0473427  
H227     H      0.783540000000     0.542200000000     0.325070000000     0.0481102  
H228     H      0.664140000000     0.411930000000     0.386540000000     0.0461428  
H229     H      0.673720000000     0.426020000000     0.295900000000     0.0501703  
H230     H      0.674140000000     0.468080000000     0.331680000000     0.0402129  
H231     H      0.768960000000     0.526880000000     0.416070000000     0.0487834  
H232     H      0.736490000000     0.534560000000     0.346960000000     0.039313   
H233     H      0.805290000000     0.101790000000     0.092200000000     0.0379199  
H234     H      0.874750000000     0.114010000000     0.092260000000     0.0376943  
H235     H      0.912770000000     0.163250000000     0.155330000000     0.0507139  
H236     H      0.768150000000     0.561820000000     0.129170000000     0.0485024  
H237     H      0.792190000000     0.137470000000     0.158170000000     0.0466729  
H238     H      0.799680000000     0.105550000000     0.202160000000     0.0466969  
H239     H      0.888700000000     0.085360000000     0.133770000000     0.0481286  
H240     H      0.884750000000     0.125230000000     0.201510000000     0.0469873  
H241     H      0.873670000000     0.385650000000     0.354230000000     0.03645    
H242     H      0.806620000000     0.324230000000     0.351860000000     0.0364922  
H243     H      0.767690000000     0.335320000000     0.293200000000     0.0479613  
H244     H      0.912160000000     0.389360000000     0.314500000000     0.0485561  
H245     H      0.884110000000     0.439020000000     0.295140000000     0.0458287  
H246     H      0.883690000000     0.406250000000     0.246400000000     0.0469258  
H247     H      0.792860000000     0.282030000000     0.308300000000     0.0481881  
H248     H      0.791860000000     0.325480000000     0.243950000000     0.0467645  
H249     H      0.971920000000     0.388620000000     0.087160000000     0.0398264  
H250     H      0.886710000000     0.371890000000     0.066290000000     0.0366648  
H251     H      0.854410000000     0.326420000000     0.999460000000     0.036229   
H252     H      0.965450000000     0.336550000000     0.075640000000     0.0513371  
H253     H      0.944530000000     0.391450000000     0.011430000000     0.0380949  
H254     H      0.973130000000     0.366040000000     0.997060000000     0.0493602  
H255     H      0.850540000000     0.322620000000     0.094100000000     0.0479861  
H256     H      0.850930000000     0.280340000000     0.028720000000     0.0515032  
H257     H      0.917000000000     0.225630000000     0.720460000000     0.0451173  
H258     H      0.914600000000     0.305410000000     0.739400000000     0.0458885  
H259     H      0.856990000000     0.298870000000     0.694740000000     0.0481113  
H260     H      0.877760000000     0.180930000000     0.752140000000     0.0479223  
H261     H      0.863300000000     0.185640000000     0.663510000000     0.0499254  
H262     H      0.826200000000     0.183200000000     0.705000000000     0.0403633  
H263     H      0.875400000000     0.296100000000     0.781100000000     0.0477205  
H264     H      0.823820000000     0.249150000000     0.724650000000     0.0394815  
H265     H      0.567430000000     0.314110000000     0.547490000000     0.0452237  
H266     H      0.584080000000     0.402660000000     0.540510000000     0.0450268  
H267     H      0.050840000000     0.413710000000     0.608850000000     0.0493348  
H268     H      0.598030000000     0.308340000000     0.592340000000     0.0480414  
H269     H      0.027530000000     0.284180000000     0.620530000000     0.0493303  
H270     H      0.066020000000     0.325870000000     0.656830000000     0.0393959  
H271     H      0.621690000000     0.437500000000     0.582560000000     0.0506833  
H272     H      0.579090000000     0.401010000000     0.650740000000     0.0399766  
H273     H      0.845070000000     0.391370000000     0.437750000000     0.0374323  
H274     H      0.786910000000     0.316090000000     0.442940000000     0.037496   
H275     H      0.798950000000     0.278410000000     0.506260000000     0.0502213  
H276     H      0.846610000000     0.432420000000     0.476170000000     0.0496759  
H277     H      0.894940000000     0.408140000000     0.500460000000     0.0475227  
H278     H      0.859480000000     0.400520000000     0.546950000000     0.0467536  
H279     H      0.748770000000     0.302710000000     0.487870000000     0.0491441  
H280     H      0.794290000000     0.310640000000     0.552140000000     0.045351   
H281     H      0.016010000000     0.286870000000     0.361000000000     0.039685   
H282     H      0.964410000000     0.212700000000     0.370260000000     0.0387205  
H283     H      0.916230000000     0.204560000000     0.429760000000     0.048518   
H284     H      0.008580000000     0.322510000000     0.322270000000     0.0494505  
H285     H      0.004650000000     0.332840000000     0.413320000000     0.0463161  
H286     H      0.963200000000     0.326900000000     0.378310000000     0.0464382  
H287     H      0.917430000000     0.191300000000     0.338690000000     0.0475334  
H288     H      0.894130000000     0.227060000000     0.391580000000     0.0487918  
H289     H      0.852060000000     0.571790000000     0.932110000000     0.0436374  
H290     H      0.782850000000     0.587310000000     0.909150000000     0.0459661  
H291     H      0.731480000000     0.545850000000     0.968540000000     0.0486941  
H292     H      0.877680000000     0.601710000000     0.984900000000     0.0455873  
H293     H      0.828050000000     0.022630000000     0.998130000000     0.0492931  
H294     H      0.820410000000     0.558750000000     0.035710000000     0.0413378  
H295     H      0.782120000000     0.623940000000     0.952390000000     0.0491604  
H296     H      0.764890000000     0.572940000000     0.017490000000     0.0371089  
H297     H      0.574280000000     0.771080000000     0.871790000000     0.042233   
H298     H      0.575480000000     0.786960000000     0.962520000000     0.044034   
H299     H      0.596720000000     0.863080000000     0.976980000000     0.0517339  
H300     H      0.033440000000     0.766280000000     0.835720000000     0.0486848  
H301     H      0.597250000000     0.837210000000     0.825090000000     0.0479426  
H302     H      0.556290000000     0.842790000000     0.847330000000     0.0416689  
H303     H      0.034730000000     0.791560000000     0.987790000000     0.0513949  
H304     H      0.555520000000     0.857950000000     0.941350000000     0.0444001  
H305     H      0.804670000000     0.920480000000     0.032400000000     0.0512052  
H306     H      0.702170000000     0.867340000000     0.059490000000     0.0490836  
H307     H      0.680360000000     0.802890000000     0.014270000000     0.0471736  
H308     H      0.818830000000     0.889860000000     0.069420000000     0.0431229  
H309     H      0.804330000000     0.870020000000     0.977570000000     0.0467774  
H310     H      0.784330000000     0.827550000000     0.021450000000     0.0346891  
H311     H      0.700880000000     0.829860000000     0.102480000000     0.045664   
H312     H      0.715680000000     0.791470000000     0.043540000000     0.0375701  
H313     H      0.784740000000     0.898390000000     0.762470000000     0.0432813  
H314     H      0.817210000000     0.006310000000     0.752680000000     0.0387789  
H315     H      0.797200000000     0.019850000000     0.676670000000     0.0423375  
H316     H      0.738930000000     0.885310000000     0.732370000000     0.0494704  
H317     H      0.824830000000     0.951050000000     0.701830000000     0.0388669  
H318     H      0.790570000000     0.902190000000     0.671550000000     0.0488268  
H319     H      0.772890000000     0.008450000000     0.766470000000     0.0480844  
H320     H      0.745100000000     0.984800000000     0.688410000000     0.0459475  
H321     H      0.703070000000     0.905170000000     0.359730000000     0.0469152  
H322     H      0.784540000000     0.994260000000     0.384310000000     0.0474153  
H323     H      0.782680000000     0.041220000000     0.324750000000     0.0481435  
H324     H      0.663550000000     0.910690000000     0.386220000000     0.0461127  
H325     H      0.673250000000     0.924620000000     0.295540000000     0.0501737  
H326     H      0.673350000000     0.966600000000     0.331130000000     0.0402065  
H327     H      0.768040000000     0.025960000000     0.415730000000     0.0488027  
H328     H      0.735490000000     0.033310000000     0.346480000000     0.0393081  
H329     H      0.805800000000     0.602790000000     0.092000000000     0.0377348  
H330     H      0.875480000000     0.615110000000     0.092330000000     0.037701   
H331     H      0.912950000000     0.662310000000     0.158020000000     0.050925   
H332     H      0.767760000000     0.061420000000     0.130780000000     0.0486497  
H333     H      0.792250000000     0.637010000000     0.159770000000     0.0468854  
H334     H      0.799470000000     0.603890000000     0.202420000000     0.0464634  
H335     H      0.888800000000     0.585400000000     0.132410000000     0.0478564  
H336     H      0.883570000000     0.622770000000     0.202330000000     0.0471181  
H337     H      0.873950000000     0.885630000000     0.354170000000     0.0364679  
H338     H      0.806910000000     0.824150000000     0.352020000000     0.0364702  
H339     H      0.767860000000     0.834870000000     0.293170000000     0.0479769  
H340     H      0.912410000000     0.889260000000     0.314440000000     0.0485451  
H341     H      0.884240000000     0.938750000000     0.294800000000     0.0458638  
H342     H      0.883790000000     0.905810000000     0.246230000000     0.0468318  
H343     H      0.793170000000     0.781770000000     0.308690000000     0.0481672  
H344     H      0.792110000000     0.824980000000     0.244050000000     0.046719   
H345     H      0.971910000000     0.887280000000     0.087070000000     0.0398738  
H346     H      0.886510000000     0.870460000000     0.066160000000     0.0366707  
H347     H      0.854090000000     0.824670000000     0.999520000000     0.0362994  
H348     H      0.965280000000     0.835150000000     0.075520000000     0.0512246  
H349     H      0.944370000000     0.890140000000     0.011410000000     0.0381127  
H350     H      0.973020000000     0.864800000000     0.996970000000     0.0493243  
H351     H      0.850440000000     0.821210000000     0.094090000000     0.0479936  
H352     H      0.851020000000     0.778830000000     0.028880000000     0.0514253  
H353     H      0.916590000000     0.725240000000     0.719490000000     0.0452362  
H354     H      0.914270000000     0.805060000000     0.738930000000     0.0459312  
H355     H      0.856600000000     0.798590000000     0.694510000000     0.0480595  
H356     H      0.877450000000     0.680510000000     0.751220000000     0.0479392  
H357     H      0.862680000000     0.685320000000     0.662750000000     0.049993   
H358     H      0.825750000000     0.682920000000     0.704500000000     0.0403433  
H359     H      0.875140000000     0.795610000000     0.780800000000     0.0477339  
H360     H      0.823460000000     0.748820000000     0.724370000000     0.0394433  
H361     H      0.566920000000     0.813770000000     0.547940000000     0.0452269  
H362     H      0.583780000000     0.902430000000     0.540640000000     0.045028   
H363     H      0.050710000000     0.913740000000     0.608960000000     0.049293   
H364     H      0.597580000000     0.808080000000     0.592780000000     0.0480232  
H365     H      0.027180000000     0.784170000000     0.621170000000     0.0493376  
H366     H      0.065800000000     0.825960000000     0.657240000000     0.0393965  
H367     H      0.621500000000     0.937290000000     0.582560000000     0.0507288  
H368     H      0.578970000000     0.901080000000     0.650880000000     0.0399566  
H369     H      0.844640000000     0.891000000000     0.437350000000     0.0374416  
H370     H      0.786590000000     0.815670000000     0.442570000000     0.0374572  
H371     H      0.798830000000     0.778090000000     0.505780000000     0.0502416  
H372     H      0.846120000000     0.932020000000     0.475760000000     0.049691   
H373     H      0.894590000000     0.907920000000     0.500010000000     0.0474781  
H374     H      0.859120000000     0.900220000000     0.546540000000     0.0467609  
H375     H      0.748480000000     0.802210000000     0.487570000000     0.0491232  
H376     H      0.794070000000     0.810190000000     0.551730000000     0.0453524  
H377     H      0.016950000000     0.787670000000     0.361300000000     0.0396647  
H378     H      0.965800000000     0.713390000000     0.370680000000     0.0386974  
H379     H      0.917450000000     0.704850000000     0.430100000000     0.0484759  
H380     H      0.009190000000     0.823020000000     0.322480000000     0.0494145  
H381     H      0.005120000000     0.833290000000     0.413570000000     0.0462512  
H382     H      0.963650000000     0.827120000000     0.378450000000     0.0464344  
H383     H      0.918810000000     0.691540000000     0.339040000000     0.0475233  
H384     H      0.894960000000     0.726830000000     0.391780000000     0.0489406  
In1      In     0.424960000000     0.301840000000     0.554020000000     2.47147    
In2      In     0.394620000000     0.271770000000     0.221250000000     2.45649    
In3      In     0.226430000000     0.415460000000     0.536290000000     2.4636     
In4      In     0.286420000000     0.454960000000     0.200170000000     2.46163    
In5      In     0.221880000000     0.418840000000     0.904060000000     2.40346    
In6      In     0.411490000000     0.236640000000     0.910280000000     2.40099    
In7      In     0.424880000000     0.801890000000     0.553900000000     2.4724     
In8      In     0.394900000000     0.771350000000     0.221810000000     2.45609    
In9      In     0.225910000000     0.914770000000     0.536120000000     2.46437    
In10     In     0.286270000000     0.954300000000     0.200000000000     2.46102    
In11     In     0.221790000000     0.918520000000     0.903810000000     2.40324    
In12     In     0.411460000000     0.735830000000     0.909410000000     2.40167    
In13     In     0.924960000000     0.301840000000     0.554020000000     2.4716     
In14     In     0.894620000000     0.271770000000     0.221250000000     2.4565     
In15     In     0.726430000000     0.415460000000     0.536290000000     2.46361    
In16     In     0.786420000000     0.454960000000     0.200170000000     2.46163    
In17     In     0.721880000000     0.418840000000     0.904060000000     2.40348    
In18     In     0.911490000000     0.236640000000     0.910280000000     2.401      
In19     In     0.924880000000     0.801890000000     0.553900000000     2.47241    
In20     In     0.894900000000     0.771350000000     0.221810000000     2.45611    
In21     In     0.725910000000     0.914770000000     0.536120000000     2.46438    
In22     In     0.786270000000     0.954300000000     0.200000000000     2.46102    
In23     In     0.721790000000     0.918520000000     0.903810000000     2.40337    
In24     In     0.911460000000     0.735830000000     0.909410000000     2.40164    
N1       N      0.277880000000     0.530320000000     0.979890000000    -0.165659   
N2       N      0.333310000000     0.115740000000     0.957200000000    -0.167091   
N3       N      0.100260000000     0.355070000000     0.900500000000    -0.165429   
N4       N      0.530150000000     0.276780000000     0.912920000000    -0.164515   
N5       N      0.241440000000     0.341960000000     0.992580000000    -0.165998   
N6       N      0.259460000000     0.379610000000     0.081790000000    -0.164808   
N7       N      0.277410000000     0.454420000000     0.667900000000    -0.164604   
N8       N      0.267140000000     0.446220000000     0.767910000000    -0.166268   
N9       N      0.231390000000     0.481910000000     0.307400000000    -0.164004   
N10      N      0.224000000000     0.461200000000     0.404330000000    -0.163852   
N11      N      0.353080000000     0.152250000000     0.168340000000    -0.163586   
N12      N      0.327160000000     0.569430000000     0.134220000000    -0.165544   
N13      N      0.326270000000     0.387260000000     0.275040000000    -0.164624   
N14      N      0.353840000000     0.333530000000     0.305700000000    -0.164975   
N15      N      0.408610000000     0.324580000000     0.999810000000    -0.165026   
N16      N      0.412380000000     0.337110000000     0.096230000000    -0.164247   
N17      N      0.363180000000     0.244630000000     0.674960000000    -0.164017   
N18      N      0.385650000000     0.243120000000     0.769620000000    -0.167157   
N19      N      0.535260000000     0.347440000000     0.612040000000    -0.164606   
N20      N      0.111830000000     0.372970000000     0.577380000000    -0.163963   
N21      N      0.348940000000     0.342910000000     0.513710000000    -0.163732   
N22      N      0.295200000000     0.369000000000     0.484490000000    -0.163828   
N23      N      0.449550000000     0.273050000000     0.422100000000    -0.164815   
N24      N      0.459320000000     0.258020000000     0.326870000000    -0.164001   
N25      N      0.278090000000     0.030610000000     0.978510000000    -0.165633   
N26      N      0.333200000000     0.614740000000     0.955690000000    -0.167088   
N27      N      0.100160000000     0.854570000000     0.900220000000    -0.165383   
N28      N      0.530140000000     0.776090000000     0.911980000000    -0.164598   
N29      N      0.241570000000     0.841700000000     0.992170000000    -0.165976   
N30      N      0.259520000000     0.879200000000     0.081440000000    -0.164846   
N31      N      0.277120000000     0.953660000000     0.667620000000    -0.164476   
N32      N      0.266970000000     0.945580000000     0.767630000000    -0.166247   
N33      N      0.230750000000     0.980740000000     0.307090000000    -0.164001   
N34      N      0.223300000000     0.960190000000     0.404060000000    -0.163795   
N35      N      0.353110000000     0.651490000000     0.169810000000    -0.163758   
N36      N      0.326960000000     0.069350000000     0.135490000000    -0.165361   
N37      N      0.326390000000     0.886850000000     0.274940000000    -0.164654   
N38      N      0.354120000000     0.833330000000     0.305900000000    -0.165058   
N39      N      0.408510000000     0.823270000000     0.999720000000    -0.165096   
N40      N      0.412320000000     0.835880000000     0.096220000000    -0.164282   
N41      N      0.362720000000     0.744360000000     0.674470000000    -0.163962   
N42      N      0.385410000000     0.742700000000     0.768960000000    -0.167095   
N43      N      0.535010000000     0.847450000000     0.612380000000    -0.164653   
N44      N      0.111460000000     0.872690000000     0.577540000000    -0.163848   
N45      N      0.348710000000     0.842660000000     0.513290000000    -0.163685   
N46      N      0.294810000000     0.868530000000     0.484160000000    -0.163733   
N47      N      0.450180000000     0.773340000000     0.422260000000    -0.164779   
N48      N      0.460260000000     0.758360000000     0.327160000000    -0.16398    
N49      N      0.777880000000     0.530320000000     0.979890000000    -0.165658   
N50      N      0.833310000000     0.115740000000     0.957200000000    -0.167088   
N51      N      0.600260000000     0.355070000000     0.900500000000    -0.165423   
N52      N      0.030150000000     0.276780000000     0.912920000000    -0.164586   
N53      N      0.741440000000     0.341960000000     0.992580000000    -0.166025   
N54      N      0.759460000000     0.379610000000     0.081790000000    -0.164808   
N55      N      0.777410000000     0.454420000000     0.667900000000    -0.164603   
N56      N      0.767140000000     0.446220000000     0.767910000000    -0.166262   
N57      N      0.731390000000     0.481910000000     0.307400000000    -0.164003   
N58      N      0.723990000000     0.461200000000     0.404330000000    -0.163835   
N59      N      0.853080000000     0.152250000000     0.168340000000    -0.163599   
N60      N      0.827160000000     0.569430000000     0.134220000000    -0.165544   
N61      N      0.826270000000     0.387260000000     0.275040000000    -0.164624   
N62      N      0.853840000000     0.333530000000     0.305700000000    -0.164974   
N63      N      0.908610000000     0.324580000000     0.999810000000    -0.165023   
N64      N      0.912380000000     0.337110000000     0.096230000000    -0.164244   
N65      N      0.863180000000     0.244630000000     0.674960000000    -0.163988   
N66      N      0.885650000000     0.243120000000     0.769620000000    -0.167155   
N67      N      0.035260000000     0.347440000000     0.612040000000    -0.164676   
N68      N      0.611830000000     0.372970000000     0.577380000000    -0.163961   
N69      N      0.848950000000     0.342910000000     0.513710000000    -0.163773   
N70      N      0.795200000000     0.369000000000     0.484490000000    -0.163818   
N71      N      0.949550000000     0.273050000000     0.422100000000    -0.164814   
N72      N      0.959320000000     0.258020000000     0.326870000000    -0.164023   
N73      N      0.778090000000     0.030610000000     0.978510000000    -0.165634   
N74      N      0.833200000000     0.614740000000     0.955690000000    -0.167087   
N75      N      0.600160000000     0.854570000000     0.900220000000    -0.16538    
N76      N      0.030140000000     0.776090000000     0.911980000000    -0.164669   
N77      N      0.741570000000     0.841700000000     0.992170000000    -0.166032   
N78      N      0.759520000000     0.879200000000     0.081440000000    -0.164845   
N79      N      0.777110000000     0.953660000000     0.667620000000    -0.164498   
N80      N      0.766970000000     0.945580000000     0.767630000000    -0.166292   
N81      N      0.730750000000     0.980740000000     0.307090000000    -0.163999   
N82      N      0.723300000000     0.960190000000     0.404060000000    -0.163794   
N83      N      0.853110000000     0.651490000000     0.169810000000    -0.163757   
N84      N      0.826960000000     0.069350000000     0.135490000000    -0.165369   
N85      N      0.826400000000     0.886850000000     0.274940000000    -0.164607   
N86      N      0.854120000000     0.833330000000     0.305900000000    -0.165056   
N87      N      0.908510000000     0.823270000000     0.999720000000    -0.165042   
N88      N      0.912320000000     0.835880000000     0.096220000000    -0.16428    
N89      N      0.862720000000     0.744360000000     0.674470000000    -0.163961   
N90      N      0.885410000000     0.742700000000     0.768960000000    -0.167092   
N91      N      0.035010000000     0.847450000000     0.612380000000    -0.164721   
N92      N      0.611460000000     0.872690000000     0.577540000000    -0.163856   
N93      N      0.848710000000     0.842660000000     0.513290000000    -0.163683   
N94      N      0.794810000000     0.868530000000     0.484160000000    -0.163732   
N95      N      0.950180000000     0.773340000000     0.422260000000    -0.164777   
N96      N      0.960260000000     0.758360000000     0.327160000000    -0.164044   
O1       O      0.365080000000     0.290360000000     0.527410000000    -0.515902   
O2       O      0.411850000000     0.355600000000     0.536390000000    -0.496624   
O3       O      0.390090000000     0.242460000000     0.601160000000    -0.494343   
O4       O      0.415900000000     0.253450000000     0.495080000000    -0.500969   
O5       O      0.484200000000     0.357110000000     0.582140000000    -0.49868    
O6       O      0.458120000000     0.319870000000     0.483320000000    -0.521219   
O7       O      0.397650000000     0.302670000000     0.625210000000    -0.519843   
O8       O      0.473960000000     0.293050000000     0.586590000000    -0.518115   
O9       O      0.403150000000     0.221210000000     0.184400000000    -0.514536   
O10      O      0.342930000000     0.205430000000     0.200550000000    -0.49402    
O11      O      0.453610000000     0.294290000000     0.261360000000    -0.492697   
O12      O      0.435560000000     0.315070000000     0.160890000000    -0.498375   
O13      O      0.344300000000     0.273770000000     0.263090000000    -0.497209   
O14      O      0.373150000000     0.294810000000     0.158430000000    -0.521094   
O15      O      0.401840000000     0.235440000000     0.282790000000    -0.513989   
O16      O      0.403390000000     0.328410000000     0.265570000000    -0.51654    
O17      O      0.175920000000     0.425890000000     0.558860000000    -0.517439   
O18      O      0.163810000000     0.361030000000     0.556740000000    -0.497708   
O19      O      0.248640000000     0.470630000000     0.482310000000    -0.494507   
O20      O      0.251620000000     0.406090000000     0.605620000000    -0.519008   
O21      O      0.234900000000     0.359400000000     0.513900000000    -0.493374   
O22      O      0.254400000000     0.466400000000     0.595840000000    -0.495816   
O23      O      0.199580000000     0.409000000000     0.462670000000    -0.517844   
O24      O      0.284340000000     0.423690000000     0.507320000000    -0.514282   
O25      O      0.276920000000     0.503290000000     0.159280000000    -0.515382   
O26      O      0.337520000000     0.518800000000     0.172730000000    -0.49687    
O27      O      0.230230000000     0.442280000000     0.241180000000    -0.496571   
O28      O      0.240950000000     0.403750000000     0.149100000000    -0.494803   
O29      O      0.336750000000     0.449950000000     0.238360000000    -0.497113   
O30      O      0.303510000000     0.432330000000     0.133180000000    -0.517138   
O31      O      0.287130000000     0.493630000000     0.264750000000    -0.51542    
O32      O      0.276840000000     0.396840000000     0.241480000000    -0.519709   
O33      O      0.272910000000     0.468100000000     0.950520000000    -0.503839   
O34      O      0.225610000000     0.480150000000     0.933440000000    -0.494413   
O35      O      0.239930000000     0.400980000000     0.833130000000    -0.502807   
O36      O      0.261680000000     0.393060000000     0.932660000000    -0.488262   
O37      O      0.161060000000     0.399820000000     0.936700000000    -0.490076   
O38      O      0.200420000000     0.361150000000     0.953380000000    -0.506091   
O39      O      0.247490000000     0.463540000000     0.839000000000    -0.508288   
O40      O      0.162080000000     0.380610000000     0.864410000000    -0.502467   
O41      O      0.348980000000     0.182100000000     0.928040000000    -0.505589   
O42      O      0.397600000000     0.172310000000     0.944390000000    -0.501634   
O43      O      0.398120000000     0.268810000000     0.847680000000    -0.508141   
O44      O      0.440740000000     0.301800000000     0.947890000000    -0.495494   
O45      O      0.469540000000     0.249870000000     0.873730000000    -0.497909   
O46      O      0.377940000000     0.261380000000     0.956500000000    -0.492831   
O47      O      0.398210000000     0.210840000000     0.833530000000    -0.503058   
O48      O      0.469370000000     0.254420000000     0.950300000000    -0.489002   
O49      O      0.365020000000     0.790240000000     0.527020000000    -0.516016   
O50      O      0.411640000000     0.855530000000     0.536170000000    -0.496935   
O51      O      0.389830000000     0.742390000000     0.600750000000    -0.494407   
O52      O      0.416260000000     0.753600000000     0.495050000000    -0.500932   
O53      O      0.484040000000     0.857150000000     0.582220000000    -0.498854   
O54      O      0.458230000000     0.820110000000     0.483320000000    -0.521167   
O55      O      0.397400000000     0.802570000000     0.625000000000    -0.519922   
O56      O      0.473750000000     0.793080000000     0.586820000000    -0.518208   
O57      O      0.403280000000     0.720450000000     0.185560000000    -0.514354   
O58      O      0.343110000000     0.704900000000     0.201600000000    -0.493818   
O59      O      0.454080000000     0.794330000000     0.261650000000    -0.492435   
O60      O      0.435680000000     0.814250000000     0.161080000000    -0.498262   
O61      O      0.344630000000     0.773420000000     0.263670000000    -0.497477   
O62      O      0.373270000000     0.793970000000     0.158760000000    -0.521235   
O63      O      0.402570000000     0.735380000000     0.283390000000    -0.513914   
O64      O      0.403660000000     0.828140000000     0.265830000000    -0.516707   
O65      O      0.175560000000     0.925440000000     0.558750000000    -0.517611   
O66      O      0.163280000000     0.860510000000     0.556780000000    -0.497969   
O67      O      0.247940000000     0.969840000000     0.482050000000    -0.494509   
O68      O      0.251040000000     0.905270000000     0.605420000000    -0.518925   
O69      O      0.234480000000     0.858800000000     0.513680000000    -0.493633   
O70      O      0.254120000000     0.965740000000     0.595600000000    -0.495783   
O71      O      0.199000000000     0.908080000000     0.462510000000    -0.517905   
O72      O      0.283850000000     0.923130000000     0.507080000000    -0.514319   
O73      O      0.276760000000     0.002800000000     0.159510000000    -0.515448   
O74      O      0.337350000000     0.018310000000     0.172910000000    -0.496703   
O75      O      0.229910000000     0.941250000000     0.240890000000    -0.496205   
O76      O      0.240910000000     0.903150000000     0.148810000000    -0.495208   
O77      O      0.336710000000     0.949440000000     0.238180000000    -0.49676    
O78      O      0.303480000000     0.931930000000     0.132890000000    -0.517351   
O79      O      0.286660000000     0.992730000000     0.264650000000    -0.515231   
O80      O      0.276850000000     0.896240000000     0.241350000000    -0.519478   
O81      O      0.272840000000     0.967990000000     0.950100000000    -0.503924   
O82      O      0.225500000000     0.979930000000     0.932890000000    -0.494498   
O83      O      0.239700000000     0.900450000000     0.832920000000    -0.502608   
O84      O      0.261710000000     0.892860000000     0.932340000000    -0.488162   
O85      O      0.160930000000     0.899130000000     0.936620000000    -0.489932   
O86      O      0.200460000000     0.860880000000     0.953160000000    -0.50595    
O87      O      0.247440000000     0.963100000000     0.838670000000    -0.507902   
O88      O      0.162020000000     0.880550000000     0.864060000000    -0.502451   
O89      O      0.348930000000     0.681210000000     0.926840000000    -0.505779   
O90      O      0.397510000000     0.671300000000     0.942990000000    -0.501788   
O91      O      0.398010000000     0.768200000000     0.847090000000    -0.508036   
O92      O      0.440640000000     0.800870000000     0.947330000000    -0.495853   
O93      O      0.469580000000     0.749460000000     0.872750000000    -0.498141   
O94      O      0.377900000000     0.760230000000     0.956130000000    -0.493189   
O95      O      0.398170000000     0.710310000000     0.832580000000    -0.50344    
O96      O      0.469290000000     0.753280000000     0.949380000000    -0.489311   
O97      O      0.865080000000     0.290360000000     0.527410000000    -0.515898   
O98      O      0.911860000000     0.355600000000     0.536390000000    -0.496626   
O99      O      0.890100000000     0.242460000000     0.601160000000    -0.494281   
O100     O      0.915900000000     0.253450000000     0.495080000000    -0.500975   
O101     O      0.984200000000     0.357110000000     0.582140000000    -0.498666   
O102     O      0.958120000000     0.319870000000     0.483320000000    -0.521193   
O103     O      0.897650000000     0.302670000000     0.625210000000    -0.519809   
O104     O      0.973960000000     0.293050000000     0.586590000000    -0.518104   
O105     O      0.903150000000     0.221210000000     0.184400000000    -0.514529   
O106     O      0.842930000000     0.205430000000     0.200550000000    -0.494019   
O107     O      0.953610000000     0.294290000000     0.261360000000    -0.492675   
O108     O      0.935560000000     0.315070000000     0.160890000000    -0.498361   
O109     O      0.844300000000     0.273770000000     0.263090000000    -0.497207   
O110     O      0.873150000000     0.294810000000     0.158430000000    -0.521092   
O111     O      0.901840000000     0.235440000000     0.282790000000    -0.513992   
O112     O      0.903390000000     0.328410000000     0.265570000000    -0.516532   
O113     O      0.675920000000     0.425890000000     0.558860000000    -0.517435   
O114     O      0.663810000000     0.361030000000     0.556740000000    -0.497702   
O115     O      0.748640000000     0.470630000000     0.482310000000    -0.494501   
O116     O      0.751620000000     0.406090000000     0.605620000000    -0.519006   
O117     O      0.734900000000     0.359400000000     0.513900000000    -0.493369   
O118     O      0.754400000000     0.466400000000     0.595840000000    -0.495814   
O119     O      0.699580000000     0.409000000000     0.462670000000    -0.517833   
O120     O      0.784340000000     0.423690000000     0.507320000000    -0.514279   
O121     O      0.776920000000     0.503290000000     0.159280000000    -0.515379   
O122     O      0.837520000000     0.518800000000     0.172730000000    -0.496866   
O123     O      0.730230000000     0.442280000000     0.241180000000    -0.496565   
O124     O      0.740950000000     0.403750000000     0.149100000000    -0.494797   
O125     O      0.836750000000     0.449950000000     0.238360000000    -0.497109   
O126     O      0.803510000000     0.432330000000     0.133180000000    -0.517136   
O127     O      0.787130000000     0.493630000000     0.264750000000    -0.515418   
O128     O      0.776840000000     0.396840000000     0.241480000000    -0.519707   
O129     O      0.772910000000     0.468100000000     0.950520000000    -0.503837   
O130     O      0.725610000000     0.480150000000     0.933440000000    -0.494409   
O131     O      0.739930000000     0.400980000000     0.833130000000    -0.502805   
O132     O      0.761680000000     0.393060000000     0.932660000000    -0.488298   
O133     O      0.661060000000     0.399820000000     0.936700000000    -0.490075   
O134     O      0.700420000000     0.361150000000     0.953380000000    -0.50598    
O135     O      0.747490000000     0.463540000000     0.839000000000    -0.508286   
O136     O      0.662080000000     0.380610000000     0.864410000000    -0.502463   
O137     O      0.848980000000     0.182100000000     0.928040000000    -0.505589   
O138     O      0.897600000000     0.172310000000     0.944390000000    -0.501625   
O139     O      0.898120000000     0.268810000000     0.847680000000    -0.508134   
O140     O      0.940740000000     0.301800000000     0.947890000000    -0.495477   
O141     O      0.969540000000     0.249870000000     0.873730000000    -0.4979     
O142     O      0.877940000000     0.261380000000     0.956500000000    -0.49283    
O143     O      0.898210000000     0.210840000000     0.833530000000    -0.50305    
O144     O      0.969370000000     0.254420000000     0.950300000000    -0.488998   
O145     O      0.865020000000     0.790240000000     0.527020000000    -0.516016   
O146     O      0.911640000000     0.855530000000     0.536170000000    -0.496924   
O147     O      0.889830000000     0.742390000000     0.600750000000    -0.494401   
O148     O      0.916260000000     0.753600000000     0.495050000000    -0.500928   
O149     O      0.984040000000     0.857150000000     0.582220000000    -0.49884    
O150     O      0.958230000000     0.820110000000     0.483320000000    -0.521142   
O151     O      0.897400000000     0.802570000000     0.625000000000    -0.519916   
O152     O      0.973750000000     0.793080000000     0.586820000000    -0.518199   
O153     O      0.903280000000     0.720450000000     0.185560000000    -0.514351   
O154     O      0.843110000000     0.704900000000     0.201600000000    -0.49382    
O155     O      0.954080000000     0.794330000000     0.261650000000    -0.492408   
O156     O      0.935680000000     0.814250000000     0.161080000000    -0.49825    
O157     O      0.844630000000     0.773420000000     0.263670000000    -0.497477   
O158     O      0.873270000000     0.793970000000     0.158760000000    -0.521235   
O159     O      0.902570000000     0.735380000000     0.283390000000    -0.513838   
O160     O      0.903660000000     0.828140000000     0.265830000000    -0.516698   
O161     O      0.675560000000     0.925440000000     0.558750000000    -0.517608   
O162     O      0.663280000000     0.860510000000     0.556780000000    -0.497963   
O163     O      0.747940000000     0.969840000000     0.482050000000    -0.494507   
O164     O      0.751040000000     0.905270000000     0.605420000000    -0.518932   
O165     O      0.734480000000     0.858800000000     0.513680000000    -0.493629   
O166     O      0.754120000000     0.965740000000     0.595600000000    -0.495787   
O167     O      0.699000000000     0.908080000000     0.462510000000    -0.517901   
O168     O      0.783850000000     0.923130000000     0.507080000000    -0.514318   
O169     O      0.776760000000     0.002800000000     0.159510000000    -0.515446   
O170     O      0.837350000000     0.018310000000     0.172910000000    -0.4967     
O171     O      0.729910000000     0.941250000000     0.240890000000    -0.496199   
O172     O      0.740910000000     0.903150000000     0.148810000000    -0.495203   
O173     O      0.836710000000     0.949440000000     0.238180000000    -0.496735   
O174     O      0.803480000000     0.931930000000     0.132890000000    -0.517348   
O175     O      0.786660000000     0.992730000000     0.264650000000    -0.515229   
O176     O      0.776850000000     0.896240000000     0.241350000000    -0.519458   
O177     O      0.772840000000     0.967990000000     0.950100000000    -0.503931   
O178     O      0.725500000000     0.979930000000     0.932890000000    -0.494512   
O179     O      0.739690000000     0.900450000000     0.832920000000    -0.50275    
O180     O      0.761710000000     0.892860000000     0.932340000000    -0.488249   
O181     O      0.660930000000     0.899130000000     0.936620000000    -0.489948   
O182     O      0.700470000000     0.860880000000     0.953160000000    -0.506129   
O183     O      0.747450000000     0.963100000000     0.838670000000    -0.508005   
O184     O      0.662020000000     0.880550000000     0.864060000000    -0.502449   
O185     O      0.848930000000     0.681210000000     0.926840000000    -0.505778   
O186     O      0.897510000000     0.671300000000     0.942990000000    -0.501776   
O187     O      0.898010000000     0.768200000000     0.847090000000    -0.508031   
O188     O      0.940650000000     0.800870000000     0.947330000000    -0.495671   
O189     O      0.969580000000     0.749460000000     0.872750000000    -0.498127   
O190     O      0.877900000000     0.760230000000     0.956130000000    -0.493116   
O191     O      0.898170000000     0.710310000000     0.832580000000    -0.503429   
O192     O      0.969290000000     0.753280000000     0.949380000000    -0.489294   


