data_structure

_audit_creation_method RASPA-1.0
_audit_creation_date 2023-5-22
_audit_author_name 'Poobodin Mano'

_cell_length_a    50.8659
_cell_length_b    50.9215
_cell_length_c    51.6245
_cell_angle_alpha 89.9993
_cell_angle_beta  89.9995
_cell_angle_gamma 89.9999
_cell_volume      133716

_symmetry_cell_setting          triclinic
_symmetry_space_group_name_Hall 'P 1'
_symmetry_space_group_name_H-M  'P 1'
_symmetry_Int_Tables_number     1

_symmetry_equiv_pos_as_xyz 'x,y,z'

loop_
_atom_site_label
_atom_site_type_symbol
_atom_site_fract_x
_atom_site_fract_y
_atom_site_fract_z
_atom_site_charge
C1       C      0.569510000000     0.762670000000     0.885370000000     0.405172   
C2       C      0.652410000000     0.719120000000     0.903450000000     0.404157   
C3       C      0.643020000000     0.793770000000     0.869060000000     0.405644   
C4       C      0.611570000000     0.768390000000     0.954010000000     0.405197   
C5       C      0.569670000000     0.760970000000     0.127160000000     0.402808   
C6       C      0.657430000000     0.725580000000     0.117550000000     0.404634   
C7       C      0.617880000000     0.764670000000     0.058930000000     0.404749   
C8       C      0.636890000000     0.800560000000     0.143540000000     0.405727   
C9       C      0.464870000000     0.761150000000     0.895770000000     0.403009   
C10      C      0.374900000000     0.726750000000     0.890520000000     0.403171   
C11      C      0.406280000000     0.762750000000     0.953240000000     0.404043   
C12      C      0.401310000000     0.799140000000     0.865440000000     0.402659   
C13      C      0.464500000000     0.759130000000     0.118730000000     0.404324   
C14      C      0.374560000000     0.724140000000     0.117160000000     0.402169   
C15      C      0.400900000000     0.797660000000     0.146300000000     0.402815   
C16      C      0.412780000000     0.765070000000     0.058310000000     0.404564   
C17      C      0.755610000000     0.453760000000     0.888080000000     0.403464   
C18      C      0.718010000000     0.368180000000     0.906000000000     0.40529    
C19      C      0.790380000000     0.382480000000     0.870060000000     0.405283   
C20      C      0.767540000000     0.412230000000     0.955730000000     0.404171   
C21      C      0.762090000000     0.454380000000     0.124170000000     0.404143   
C22      C      0.723860000000     0.366330000000     0.118200000000     0.403019   
C23      C      0.764100000000     0.404210000000     0.059790000000     0.404083   
C24      C      0.797990000000     0.388190000000     0.146900000000     0.403542   
C25      C      0.757110000000     0.556050000000     0.870290000000     0.405612   
C26      C      0.727480000000     0.645230000000     0.887220000000     0.405079   
C27      C      0.771150000000     0.596610000000     0.938510000000     0.403057   
C28      C      0.798440000000     0.622300000000     0.852600000000     0.403852   
C29      C      0.761440000000     0.558220000000     0.106680000000     0.402854   
C30      C      0.724910000000     0.646490000000     0.098740000000     0.404338   
C31      C      0.797510000000     0.627650000000     0.129620000000     0.404822   
C32      C      0.766040000000     0.607150000000     0.042370000000     0.40468    
C33      C      0.560990000000     0.897470000000     0.275610000000     0.410278   
C34      C      0.646400000000     0.895280000000     0.293820000000     0.408455   
C35      C      0.619370000000     0.870490000000     0.217980000000     0.409194   
C36      C      0.616620000000     0.954980000000     0.240100000000     0.406129   
C37      C      0.552150000000     0.117290000000     0.267190000000     0.406726   
C38      C      0.637210000000     0.125010000000     0.294010000000     0.4098     
C39      C      0.610930000000     0.060350000000     0.243980000000     0.407194   
C40      C      0.615700000000     0.146110000000     0.217420000000     0.410041   
C41      C      0.446990000000     0.119650000000     0.273470000000     0.404639   
C42      C      0.363480000000     0.115120000000     0.297740000000     0.406737   
C43      C      0.384390000000     0.146550000000     0.222170000000     0.408931   
C44      C      0.392260000000     0.061650000000     0.236180000000     0.412592   
C45      C      0.456110000000     0.901350000000     0.270310000000     0.404747   
C46      C      0.371330000000     0.899980000000     0.297420000000     0.409307   
C47      C      0.398330000000     0.958050000000     0.242080000000     0.406463   
C48      C      0.392300000000     0.872420000000     0.220480000000     0.409846   
C49      C      0.452170000000     0.261440000000     0.898730000000     0.403272   
C50      C      0.363770000000     0.300550000000     0.901810000000     0.403902   
C51      C      0.383040000000     0.228670000000     0.870640000000     0.403789   
C52      C      0.399740000000     0.258430000000     0.959400000000     0.404434   
C53      C      0.454030000000     0.261660000000     0.114880000000     0.404238   
C54      C      0.365550000000     0.296040000000     0.129030000000     0.402776   
C55      C      0.390220000000     0.261390000000     0.063260000000     0.404514   
C56      C      0.394550000000     0.221710000000     0.149480000000     0.40318    
C57      C      0.557830000000     0.256140000000     0.888310000000     0.40424    
C58      C      0.647790000000     0.289700000000     0.893540000000     0.404871   
C59      C      0.608860000000     0.252510000000     0.952860000000     0.404909   
C60      C      0.625170000000     0.216810000000     0.866800000000     0.40319    
C61      C      0.559110000000     0.266840000000     0.102380000000     0.405362   
C62      C      0.649060000000     0.291900000000     0.123880000000     0.404246   
C63      C      0.611790000000     0.220270000000     0.141740000000     0.403632   
C64      C      0.623510000000     0.259450000000     0.055510000000     0.40493    
C65      C      0.118880000000     0.446280000000     0.264120000000     0.403854   
C66      C      0.131530000000     0.359600000000     0.303980000000     0.404107   
C67      C      0.065010000000     0.383460000000     0.265520000000     0.403298   
C68      C      0.154450000000     0.384820000000     0.230080000000     0.404471   
C69      C      0.898510000000     0.444820000000     0.253390000000     0.403452   
C70      C      0.890990000000     0.358370000000     0.293430000000     0.404782   
C71      C      0.870960000000     0.375810000000     0.220150000000     0.405227   
C72      C      0.958410000000     0.389190000000     0.257860000000     0.403951   
C73      C      0.888800000000     0.549710000000     0.244360000000     0.404561   
C74      C      0.895690000000     0.638770000000     0.278360000000     0.403103   
C75      C      0.955350000000     0.599440000000     0.241930000000     0.404658   
C76      C      0.868400000000     0.615650000000     0.205040000000     0.40274    
C77      C      0.112020000000     0.553580000000     0.260030000000     0.403422   
C78      C      0.126190000000     0.643090000000     0.290140000000     0.404894   
C79      C      0.149640000000     0.615370000000     0.219380000000     0.404283   
C80      C      0.059630000000     0.614560000000     0.252520000000     0.404927   
C81      C      0.262540000000     0.569830000000     0.904330000000     0.403985   
C82      C      0.297950000000     0.656180000000     0.883580000000     0.405047   
C83      C      0.223540000000     0.631280000000     0.868120000000     0.404585   
C84      C      0.265090000000     0.636380000000     0.953480000000     0.40487    
C85      C      0.267020000000     0.560260000000     0.107390000000     0.404204   
C86      C      0.298330000000     0.650220000000     0.124010000000     0.403052   
C87      C      0.263490000000     0.622700000000     0.056890000000     0.402845   
C88      C      0.225590000000     0.615560000000     0.144250000000     0.402756   
C89      C      0.267940000000     0.453770000000     0.104940000000     0.404355   
C90      C      0.292650000000     0.368660000000     0.138440000000     0.405211   
C91      C      0.220730000000     0.402930000000     0.151140000000     0.405504   
C92      C      0.258250000000     0.382860000000     0.066700000000     0.404887   
C93      C      0.265840000000     0.465000000000     0.919320000000     0.404613   
C94      C      0.290040000000     0.375520000000     0.895970000000     0.404568   
C95      C      0.257010000000     0.398520000000     0.965000000000     0.403525   
C96      C      0.218960000000     0.411570000000     0.878840000000     0.404064   
C97      C      0.906450000000     0.748960000000     0.541250000000     0.404374   
C98      C      0.883380000000     0.720310000000     0.628420000000     0.406101   
C99      C      0.952120000000     0.755970000000     0.611400000000     0.404526   
C100     C      0.866200000000     0.793010000000     0.596600000000     0.404612   
C101     C      0.109710000000     0.756280000000     0.556330000000     0.40437    
C102     C      0.126350000000     0.731860000000     0.647140000000     0.403442   
C103     C      0.146070000000     0.801980000000     0.611510000000     0.403235   
C104     C      0.058080000000     0.761170000000     0.614100000000     0.402709   
C105     C      0.894490000000     0.753500000000     0.436990000000     0.403636   
C106     C      0.886880000000     0.716490000000     0.349220000000     0.40461    
C107     C      0.864620000000     0.790260000000     0.371290000000     0.404637   
C108     C      0.952210000000     0.751600000000     0.379540000000     0.40452    
C109     C      0.116540000000     0.755120000000     0.451740000000     0.404623   
C110     C      0.117220000000     0.717090000000     0.364200000000     0.402537   
C111     C      0.056620000000     0.757400000000     0.397290000000     0.404091   
C112     C      0.147400000000     0.789790000000     0.390250000000     0.402476   
C113     C      0.120710000000     0.471660000000     0.767310000000     0.403997   
C114     C      0.113370000000     0.382670000000     0.732780000000     0.403427   
C115     C      0.145230000000     0.405170000000     0.803880000000     0.404468   
C116     C      0.055720000000     0.423630000000     0.773440000000     0.404639   
C117     C      0.886260000000     0.463340000000     0.759070000000     0.404551   
C118     C      0.890510000000     0.373780000000     0.725160000000     0.403954   
C119     C      0.950320000000     0.411160000000     0.764410000000     0.404173   
C120     C      0.861880000000     0.397490000000     0.797450000000     0.40355    
C121     C      0.899680000000     0.568210000000     0.749120000000     0.403983   
C122     C      0.898450000000     0.652920000000     0.705540000000     0.404089   
C123     C      0.871450000000     0.637240000000     0.780220000000     0.404867   
C124     C      0.960430000000     0.625350000000     0.749840000000     0.405206   
C125     C      0.134830000000     0.575150000000     0.765110000000     0.404225   
C126     C      0.119520000000     0.659540000000     0.722670000000     0.40325    
C127     C      0.064760000000     0.617770000000     0.765420000000     0.404622   
C128     C      0.151340000000     0.645980000000     0.795920000000     0.405603   
C129     C      0.254850000000     0.119260000000     0.466120000000     0.40308    
C130     C      0.290020000000     0.113460000000     0.377830000000     0.402586   
C131     C      0.250470000000     0.055130000000     0.416670000000     0.404058   
C132     C      0.218960000000     0.144640000000     0.399340000000     0.404202   
C133     C      0.257690000000     0.891080000000     0.457670000000     0.404621   
C134     C      0.298720000000     0.886310000000     0.371970000000     0.405472   
C135     C      0.224730000000     0.862420000000     0.389410000000     0.404765   
C136     C      0.258830000000     0.950810000000     0.401050000000     0.40394    
C137     C      0.260540000000     0.910090000000     0.560600000000     0.403632   
C138     C      0.293220000000     0.901380000000     0.649560000000     0.404467   
C139     C      0.256570000000     0.966320000000     0.619600000000     0.404097   
C140     C      0.221520000000     0.876370000000     0.622390000000     0.404493   
C141     C      0.253560000000     0.138770000000     0.568080000000     0.404825   
C142     C      0.291150000000     0.134750000000     0.655250000000     0.404843   
C143     C      0.218640000000     0.161140000000     0.636550000000     0.404784   
C144     C      0.252160000000     0.073330000000     0.615850000000     0.4031     
C145     C      0.116320000000     0.260380000000     0.472870000000     0.405507   
C146     C      0.117450000000     0.291600000000     0.382810000000     0.403075   
C147     C      0.145500000000     0.219160000000     0.411390000000     0.4032     
C148     C      0.056410000000     0.252680000000     0.420300000000     0.404268   
C149     C      0.888790000000     0.256400000000     0.463240000000     0.403131   
C150     C      0.891220000000     0.289310000000     0.373200000000     0.402429   
C151     C      0.949820000000     0.253800000000     0.409850000000     0.403412   
C152     C      0.860070000000     0.218440000000     0.400350000000     0.402231   
C153     C      0.896720000000     0.263640000000     0.567630000000     0.404162   
C154     C      0.879850000000     0.296320000000     0.655460000000     0.4039     
C155     C      0.861100000000     0.222260000000     0.626640000000     0.403007   
C156     C      0.948340000000     0.263450000000     0.629110000000     0.404177   
C157     C      0.101490000000     0.272550000000     0.575350000000     0.404119   
C158     C      0.121800000000     0.305790000000     0.662280000000     0.404257   
C159     C      0.053190000000     0.270460000000     0.641130000000     0.404105   
C160     C      0.141630000000     0.233200000000     0.631980000000     0.403461   
C161     C      0.753690000000     0.894310000000     0.557270000000     0.40335    
C162     C      0.720900000000     0.889110000000     0.646800000000     0.404234   
C163     C      0.791570000000     0.863480000000     0.618260000000     0.40457    
C164     C      0.757580000000     0.953570000000     0.611170000000     0.402872   
C165     C      0.756600000000     0.127950000000     0.558720000000     0.404651   
C166     C      0.718610000000     0.105420000000     0.642820000000     0.403947   
C167     C      0.765380000000     0.057980000000     0.598770000000     0.40493    
C168     C      0.789790000000     0.145200000000     0.630150000000     0.404507   
C169     C      0.751250000000     0.119730000000     0.455250000000     0.403334   
C170     C      0.710940000000     0.115630000000     0.368790000000     0.403728   
C171     C      0.784540000000     0.146170000000     0.388030000000     0.404605   
C172     C      0.754350000000     0.056970000000     0.403360000000     0.404655   
C173     C      0.756790000000     0.882680000000     0.454900000000     0.405674   
C174     C      0.720290000000     0.901130000000     0.369590000000     0.403318   
C175     C      0.765600000000     0.952670000000     0.413530000000     0.405285   
C176     C      0.793170000000     0.865090000000     0.388540000000     0.403957   
C177     C      0.456980000000     0.894170000000     0.759990000000     0.403699   
C178     C      0.369790000000     0.907890000000     0.722030000000     0.403698   
C179     C      0.386810000000     0.871530000000     0.792870000000     0.404802   
C180     C      0.412540000000     0.960020000000     0.767780000000     0.405167   
C181     C      0.459930000000     0.125500000000     0.760850000000     0.402894   
C182     C      0.369830000000     0.125550000000     0.725960000000     0.402681   
C183     C      0.405690000000     0.065760000000     0.764110000000     0.4041     
C184     C      0.395160000000     0.154960000000     0.797800000000     0.402265   
C185     C      0.561430000000     0.882900000000     0.761090000000     0.404187   
C186     C      0.647180000000     0.895890000000     0.722140000000     0.403799   
C187     C      0.608700000000     0.952330000000     0.764810000000     0.404253   
C188     C      0.630120000000     0.865070000000     0.796300000000     0.403636   
C189     C      0.564990000000     0.130840000000     0.762000000000     0.40516    
C190     C      0.649280000000     0.111550000000     0.723030000000     0.404722   
C191     C      0.637410000000     0.143260000000     0.796330000000     0.40633    
C192     C      0.604460000000     0.058880000000     0.769160000000     0.404359   
C193     C      0.624610000000     0.993520000000     0.784600000000    -0.0107848  
C194     C      0.595560000000     0.994230000000     0.744750000000    -0.0104086  
C195     C      0.610400000000     0.018020000000     0.794640000000    -0.0111368  
C196     C      0.581440000000     0.018350000000     0.755530000000    -0.0109482  
C197     C      0.501650000000     0.123650000000     0.784740000000    -0.00986309 
C198     C      0.501090000000     0.130280000000     0.735850000000    -0.0112286  
C199     C      0.524900000000     0.142430000000     0.786390000000    -0.0102104  
C200     C      0.525770000000     0.147470000000     0.738460000000    -0.0107138  
C201     C      0.406080000000     0.000580000000     0.793760000000    -0.0113604  
C202     C      0.432070000000     0.001530000000     0.752540000000    -0.0100494  
C203     C      0.390200000000     0.024530000000     0.784630000000    -0.0110459  
C204     C      0.415110000000     0.023820000000     0.742310000000    -0.0099921  
C205     C      0.497510000000     0.885230000000     0.735270000000    -0.0110279  
C206     C      0.498450000000     0.892830000000     0.784140000000    -0.00974903 
C207     C      0.521460000000     0.867120000000     0.738240000000    -0.0108937  
C208     C      0.521110000000     0.873410000000     0.785980000000    -0.00968547 
C209     C      0.736330000000     0.014220000000     0.416900000000    -0.010158   
C210     C      0.776570000000     0.016420000000     0.388240000000    -0.011403   
C211     C      0.750030000000     0.993750000000     0.433640000000    -0.0101403  
C212     C      0.789160000000     0.994360000000     0.404300000000    -0.0110654  
C213     C      0.662970000000     0.128220000000     0.680040000000    -0.0113069  
C214     C      0.694140000000     0.101790000000     0.707680000000    -0.0105418  
C215     C      0.672380000000     0.113180000000     0.656020000000    -0.0109626  
C216     C      0.702560000000     0.086260000000     0.683820000000    -0.0104078  
C217     C      0.732090000000     0.144600000000     0.520440000000    -0.010724   
C218     C      0.780370000000     0.137220000000     0.518020000000    -0.0100985  
C219     C      0.727760000000     0.127210000000     0.496480000000    -0.0112855  
C220     C      0.777020000000     0.118250000000     0.495440000000    -0.00996555 
C221     C      0.656980000000     0.889980000000     0.675550000000    -0.0113344  
C222     C      0.692350000000     0.904140000000     0.707110000000    -0.00998434 
C223     C      0.677310000000     0.872920000000     0.661410000000    -0.0108337  
C224     C      0.711660000000     0.885800000000     0.693640000000    -0.0103914  
C225     C      0.732060000000     0.868270000000     0.493900000000    -0.0104844  
C226     C      0.780620000000     0.874040000000     0.495520000000    -0.00894813 
C227     C      0.728690000000     0.887570000000     0.516600000000    -0.0115962  
C228     C      0.778110000000     0.895120000000     0.516220000000    -0.00984466 
C229     C      0.747830000000     0.016260000000     0.581650000000    -0.0100604  
C230     C      0.790480000000     0.016710000000     0.605790000000    -0.0109477  
C231     C      0.736770000000     0.995940000000     0.600410000000    -0.01033    
C232     C      0.780390000000     0.994790000000     0.623690000000    -0.0113695  
C233     C      0.797960000000     0.191250000000     0.642930000000    -0.0105302  
C234     C      0.833520000000     0.158040000000     0.647370000000    -0.0106624  
C235     C      0.814950000000     0.207950000000     0.624970000000    -0.00990462 
C236     C      0.852010000000     0.174810000000     0.630680000000    -0.0111472  
C237     C      0.990100000000     0.240980000000     0.639700000000    -0.0113179  
C238     C      0.989380000000     0.288590000000     0.624940000000    -0.0101496  
C239     C      0.013380000000     0.247560000000     0.657530000000    -0.0108511  
C240     C      0.011200000000     0.294560000000     0.644260000000    -0.00997368 
C241     C      0.829500000000     0.158220000000     0.373720000000    -0.0103178  
C242     C      0.795570000000     0.192800000000     0.380190000000    -0.00997019 
C243     C      0.848170000000     0.172130000000     0.392550000000    -0.0109718  
C244     C      0.813080000000     0.207050000000     0.399670000000    -0.0103148  
C245     C      0.888850000000     0.287330000000     0.526280000000    -0.0115132  
C246     C      0.910180000000     0.242660000000     0.526770000000    -0.0101092  
C247     C      0.872230000000     0.278870000000     0.502790000000    -0.0110982  
C248     C      0.891810000000     0.233720000000     0.505300000000    -0.00989514 
C249     C      0.991740000000     0.232660000000     0.396800000000    -0.0109086  
C250     C      0.991120000000     0.278650000000     0.414510000000    -0.0100958  
C251     C      0.015880000000     0.226450000000     0.413620000000    -0.0113725  
C252     C      0.013770000000     0.271940000000     0.432580000000    -0.0102042  
C253     C      0.110500000000     0.240030000000     0.515810000000    -0.00971503 
C254     C      0.129170000000     0.285530000000     0.512210000000    -0.0111714  
C255     C      0.089810000000     0.249900000000     0.534750000000    -0.0103279  
C256     C      0.109980000000     0.294960000000     0.533340000000    -0.011677   
C257     C      0.174220000000     0.172000000000     0.653480000000    -0.010541   
C258     C      0.207060000000     0.207370000000     0.645220000000    -0.00983445 
C259     C      0.153880000000     0.186420000000     0.636700000000    -0.0112676  
C260     C      0.188190000000     0.221270000000     0.626890000000    -0.00993001 
C261     C      0.357070000000     0.134870000000     0.680620000000    -0.0112961  
C262     C      0.324220000000     0.116730000000     0.712860000000    -0.0102618  
C263     C      0.335040000000     0.151440000000     0.668480000000    -0.0109381  
C264     C      0.303250000000     0.134700000000     0.701540000000    -0.0101067  
C265     C      0.304450000000     0.899150000000     0.696050000000    -0.0102407  
C266     C      0.337350000000     0.885280000000     0.662700000000    -0.0108112  
C267     C      0.324470000000     0.917730000000     0.708190000000    -0.0104988  
C268     C      0.358350000000     0.902510000000     0.675670000000    -0.0113259  
C269     C      0.234020000000     0.006640000000     0.635020000000    -0.0112158  
C270     C      0.280420000000     0.008520000000     0.618460000000    -0.010568   
C271     C      0.227360000000     0.031540000000     0.619530000000    -0.0115347  
C272     C      0.273470000000     0.032220000000     0.601790000000    -0.0106207  
C273     C      0.239090000000     0.916810000000     0.518220000000    -0.0104145  
C274     C      0.285470000000     0.899400000000     0.520650000000    -0.0115176  
C275     C      0.232400000000     0.895720000000     0.498280000000    -0.0106405  
C276     C      0.278770000000     0.879240000000     0.499490000000    -0.0112654  
C277     C      0.192120000000     0.206230000000     0.411000000000    -0.0101496  
C278     C      0.155980000000     0.172320000000     0.404630000000    -0.0110574  
C279     C      0.208860000000     0.191410000000     0.391290000000    -0.0101213  
C280     C      0.173990000000     0.157560000000     0.385780000000    -0.0104006  
C281     C      0.271720000000     0.013150000000     0.428070000000    -0.0101192  
C282     C      0.226810000000     0.013420000000     0.407710000000    -0.0113637  
C283     C      0.281040000000     0.993300000000     0.407990000000    -0.0103942  
C284     C      0.235710000000     0.991930000000     0.388710000000    -0.0112743  
C285     C      0.228310000000     0.142650000000     0.527440000000    -0.0101369  
C286     C      0.276700000000     0.150190000000     0.527230000000    -0.0108869  
C287     C      0.231020000000     0.120720000000     0.507550000000    -0.0100261  
C288     C      0.280150000000     0.129530000000     0.505800000000    -0.0114034  
C289     C      0.024660000000     0.597530000000     0.747340000000    -0.0103936  
C290     C      0.021570000000     0.627730000000     0.785570000000    -0.0112343  
C291     C      0.004310000000     0.613910000000     0.732880000000    -0.0104359  
C292     C      0.999860000000     0.643410000000     0.771830000000    -0.0110798  
C293     C      0.863820000000     0.340830000000     0.667160000000    -0.0107163  
C294     C      0.874470000000     0.308180000000     0.701560000000    -0.0100369  
C295     C      0.882440000000     0.360920000000     0.679630000000    -0.0112793  
C296     C      0.894260000000     0.326980000000     0.713740000000    -0.0102262  
C297     C      0.889810000000     0.525740000000     0.727890000000    -0.011525   
C298     C      0.904620000000     0.527760000000     0.774740000000    -0.0102589  
C299     C      0.871410000000     0.502890000000     0.734930000000    -0.0109469  
C300     C      0.884870000000     0.506270000000     0.781320000000    -0.0103194  
C301     C      0.129290000000     0.317610000000     0.708090000000    -0.0100635  
C302     C      0.137440000000     0.350600000000     0.673330000000    -0.0105429  
C303     C      0.109660000000     0.335890000000     0.721260000000    -0.0103052  
C304     C      0.119050000000     0.370210000000     0.686810000000    -0.0112982  
C305     C      0.013940000000     0.414780000000     0.796810000000    -0.0114422  
C306     C      0.014010000000     0.439870000000     0.755000000000    -0.0104541  
C307     C      0.991350000000     0.397560000000     0.786690000000    -0.0112413  
C308     C      0.992890000000     0.421780000000     0.744110000000    -0.0102676  
C309     C      0.150450000000     0.534070000000     0.744310000000    -0.0104952  
C310     C      0.142410000000     0.535670000000     0.791760000000    -0.0095345  
C311     C      0.131090000000     0.511110000000     0.741420000000    -0.0112199  
C312     C      0.121730000000     0.514120000000     0.789860000000    -0.00980768 
C313     C      0.160080000000     0.836160000000     0.384790000000    -0.0108524  
C314     C      0.194030000000     0.800890000000     0.395170000000    -0.00992167 
C315     C      0.181420000000     0.851340000000     0.370090000000    -0.0107294  
C316     C      0.214110000000     0.816180000000     0.379320000000    -0.00986086 
C317     C      0.839310000000     0.853620000000     0.379560000000    -0.0104936  
C318     C      0.803610000000     0.818480000000     0.382280000000    -0.00972661 
C319     C      0.853890000000     0.836360000000     0.359930000000    -0.0109003  
C320     C      0.818600000000     0.802670000000     0.362030000000    -0.00988533 
C321     C      0.013780000000     0.736880000000     0.406860000000    -0.0102515  
C322     C      0.015830000000     0.781190000000     0.385160000000    -0.0114968  
C323     C      0.993830000000     0.727780000000     0.386760000000    -0.0102752  
C324     C      0.994280000000     0.772380000000     0.366190000000    -0.0109504  
C325     C      0.191750000000     0.816530000000     0.604810000000    -0.0101375  
C326     C      0.156600000000     0.849110000000     0.617700000000    -0.0114222  
C327     C      0.210490000000     0.829190000000     0.624120000000    -0.0104019  
C328     C      0.176520000000     0.862790000000     0.635570000000    -0.0110801  
C329     C      0.127440000000     0.669150000000     0.676310000000    -0.0111164  
C330     C      0.110460000000     0.704270000000     0.706790000000    -0.0101975  
C331     C      0.144920000000     0.689820000000     0.663220000000    -0.0106784  
C332     C      0.129140000000     0.723950000000     0.694260000000    -0.0101933  
C333     C      0.132480000000     0.734890000000     0.492670000000    -0.0111018  
C334     C      0.114400000000     0.780780000000     0.492060000000    -0.00950188 
C335     C      0.116010000000     0.728880000000     0.516980000000    -0.011206   
C336     C      0.095960000000     0.774030000000     0.514170000000    -0.00970264 
C337     C      0.854890000000     0.839630000000     0.604880000000    -0.0110548  
C338     C      0.819600000000     0.806380000000     0.594480000000    -0.00978397 
C339     C      0.837720000000     0.850360000000     0.626910000000    -0.0103844  
C340     C      0.803480000000     0.816490000000     0.617330000000    -0.00986864 
C341     C      0.893580000000     0.698300000000     0.689940000000    -0.0096732  
C342     C      0.893180000000     0.659880000000     0.658390000000    -0.0115363  
C343     C      0.871960000000     0.711220000000     0.673960000000    -0.00983283 
C344     C      0.872840000000     0.674730000000     0.641970000000    -0.0101789  
C345     C      0.921200000000     0.767300000000     0.499400000000    -0.0108568  
C346     C      0.897690000000     0.723940000000     0.500820000000    -0.0115694  
C347     C      0.902550000000     0.776750000000     0.478220000000    -0.0106298  
C348     C      0.880100000000     0.732750000000     0.478200000000    -0.0113695  
C349     C      0.015730000000     0.784610000000     0.616830000000    -0.0109937  
C350     C      0.017790000000     0.735480000000     0.607870000000    -0.00986402 
C351     C      0.989530000000     0.780260000000     0.630940000000    -0.0108971  
C352     C      0.992560000000     0.732040000000     0.623360000000    -0.0102322  
C353     C      0.171800000000     0.407220000000     0.867630000000    -0.0114696  
C354     C      0.205600000000     0.418840000000     0.833510000000    -0.0103581  
C355     C      0.157780000000     0.389630000000     0.847800000000    -0.0106497  
C356     C      0.192220000000     0.399900000000     0.814800000000    -0.0101584  
C357     C      0.281910000000     0.392780000000     0.005390000000    -0.0100332  
C358     C      0.231800000000     0.390010000000     0.004980000000    -0.0113965  
C359     C      0.282170000000     0.371840000000     0.026520000000    -0.0100507  
C360     C      0.233410000000     0.370120000000     0.027270000000    -0.0105633  
C361     C      0.287980000000     0.518980000000     0.122030000000    -0.0110151  
C362     C      0.244480000000     0.518560000000     0.098150000000    -0.00999825 
C363     C      0.295820000000     0.493710000000     0.107740000000    -0.01115    
C364     C      0.253500000000     0.494450000000     0.083140000000    -0.0105316  
C365     C      0.197470000000     0.655480000000     0.807020000000    -0.00970992 
C366     C      0.162780000000     0.659790000000     0.840630000000    -0.0100822  
C367     C      0.210930000000     0.633620000000     0.822200000000    -0.00942606 
C368     C      0.176730000000     0.639420000000     0.857770000000    -0.0114012  
C369     C      0.250080000000     0.507900000000     0.935270000000    -0.0103209  
C370     C      0.292270000000     0.505010000000     0.910430000000    -0.0110843  
C371     C      0.239940000000     0.528870000000     0.916730000000    -0.0104555  
C372     C      0.283050000000     0.527290000000     0.892540000000    -0.0115691  
C373     C      0.291450000000     0.638730000000     0.993600000000    -0.0102458  
C374     C      0.244400000000     0.652370000000     0.994130000000    -0.0107725  
C375     C      0.286540000000     0.618880000000     0.015170000000    -0.010234   
C376     C      0.238940000000     0.633840000000     0.017000000000    -0.0115012  
C377     C      0.163480000000     0.633620000000     0.176940000000    -0.0110777  
C378     C      0.196940000000     0.618050000000     0.209080000000    -0.0105662  
C379     C      0.178390000000     0.619620000000     0.155080000000    -0.0111595  
C380     C      0.211160000000     0.602770000000     0.187930000000    -0.0102648  
C381     C      0.122940000000     0.670220000000     0.353190000000    -0.0110573  
C382     C      0.114430000000     0.704380000000     0.318320000000    -0.0102081  
C383     C      0.140990000000     0.655560000000     0.334280000000    -0.0107745  
C384     C      0.133490000000     0.689870000000     0.300610000000    -0.0100326  
C385     C      0.871010000000     0.671980000000     0.337230000000    -0.0107077  
C386     C      0.882610000000     0.704630000000     0.303020000000    -0.010017   
C387     C      0.888490000000     0.651300000000     0.324090000000    -0.0112592  
C388     C      0.901410000000     0.685170000000     0.290390000000    -0.0100037  
C389     C      0.996450000000     0.590180000000     0.265630000000    -0.010466   
C390     C      0.998040000000     0.607070000000     0.219800000000    -0.011305   
C391     C      0.016280000000     0.611080000000     0.273720000000    -0.0102963  
C392     C      0.019530000000     0.626700000000     0.227760000000    -0.0111799  
C393     C      0.871500000000     0.348830000000     0.336530000000    -0.010736   
C394     C      0.883540000000     0.312370000000     0.306490000000    -0.00968439 
C395     C      0.886330000000     0.335300000000     0.358740000000    -0.0109886  
C396     C      0.899870000000     0.299240000000     0.327480000000    -0.00987511 
C397     C      0.872150000000     0.510740000000     0.268190000000    -0.0108578  
C398     C      0.884980000000     0.507230000000     0.221670000000    -0.00983743 
C399     C      0.890000000000     0.487380000000     0.274950000000    -0.0114555  
C400     C      0.904180000000     0.485180000000     0.227860000000    -0.0102375  
C401     C      0.117040000000     0.301010000000     0.336010000000    -0.0101173  
C402     C      0.124180000000     0.337550000000     0.368670000000    -0.0114233  
C403     C      0.137570000000     0.313710000000     0.318460000000    -0.0107906  
C404     C      0.143570000000     0.350510000000     0.349770000000    -0.0109171  
C405     C      0.207050000000     0.412490000000     0.196070000000    -0.0104244  
C406     C      0.175240000000     0.391800000000     0.164730000000    -0.0112355  
C407     C      0.200400000000     0.391380000000     0.216010000000    -0.0103288  
C408     C      0.167510000000     0.371670000000     0.185560000000    -0.0108641  
C409     C      0.000880000000     0.380700000000     0.235920000000    -0.0115328  
C410     C      0.999280000000     0.401180000000     0.280520000000    -0.0104097  
C411     C      0.025330000000     0.365050000000     0.244110000000    -0.0110754  
C412     C      0.022530000000     0.384220000000     0.288660000000    -0.0104019  
C413     C      0.117390000000     0.514010000000     0.287440000000    -0.0112286  
C414     C      0.098070000000     0.510650000000     0.242680000000    -0.0105712  
C415     C      0.133240000000     0.488850000000     0.282580000000    -0.011001   
C416     C      0.114680000000     0.486290000000     0.237490000000    -0.0105371  
C417     C      0.651330000000     0.153530000000     0.841190000000    -0.0099456  
C418     C      0.653230000000     0.187760000000     0.807150000000    -0.00982944 
C419     C      0.632030000000     0.169950000000     0.857230000000    -0.0108535  
C420     C      0.633270000000     0.204790000000     0.821470000000    -0.00963055 
C421     C      0.601080000000     0.275920000000     0.994010000000    -0.0103418  
C422     C      0.617000000000     0.228970000000     0.994210000000    -0.0113896  
C423     C      0.622290000000     0.282960000000     0.013700000000    -0.0100195  
C424     C      0.637010000000     0.236110000000     0.015380000000    -0.0106911  
C425     C      0.354930000000     0.342470000000     0.137030000000    -0.010632   
C426     C      0.318950000000     0.307390000000     0.133940000000    -0.00945816 
C427     C      0.336980000000     0.357990000000     0.155280000000    -0.00995358 
C428     C      0.302650000000     0.323550000000     0.152940000000    -0.00982956 
C429     C      0.518630000000     0.292370000000     0.111970000000    -0.0110275  
C430     C      0.516620000000     0.251310000000     0.085280000000    -0.00993199 
C431     C      0.495940000000     0.282190000000     0.128900000000    -0.0113937  
C432     C      0.495680000000     0.240070000000     0.103150000000    -0.00998903 
C433     C      0.317610000000     0.314220000000     0.906460000000    -0.00994454 
C434     C      0.353180000000     0.347490000000     0.895550000000    -0.0110571  
C435     C      0.299060000000     0.328530000000     0.888020000000    -0.0101679  
C436     C      0.333370000000     0.362010000000     0.878320000000    -0.0103117  
C437     C      0.386570000000     0.165850000000     0.843560000000    -0.0108669  
C438     C      0.394490000000     0.201650000000     0.809960000000    -0.0100597  
C439     C      0.367610000000     0.184410000000     0.857580000000    -0.010587   
C440     C      0.374910000000     0.219030000000     0.824370000000    -0.0102337  
C441     C      0.391590000000     0.233300000000     0.999840000000    -0.0114168  
C442     C      0.410910000000     0.278950000000     0.001170000000    -0.01022    
C443     C      0.373780000000     0.240460000000     0.022870000000    -0.0109607  
C444     C      0.391500000000     0.286330000000     0.022360000000    -0.00962044 
C445     C      0.518080000000     0.280770000000     0.874310000000    -0.0111209  
C446     C      0.515840000000     0.232570000000     0.882620000000    -0.0101124  
C447     C      0.494000000000     0.285230000000     0.891780000000    -0.0115051  
C448     C      0.493340000000     0.236390000000     0.901680000000    -0.0101238  
C449     C      0.361840000000     0.897640000000     0.344490000000    -0.0114382  
C450     C      0.325190000000     0.897310000000     0.311140000000    -0.0092047  
C451     C      0.345720000000     0.878360000000     0.361130000000    -0.0111701  
C452     C      0.311140000000     0.876410000000     0.326910000000    -0.00955739 
C453     C      0.335300000000     0.124350000000     0.364420000000    -0.0114321  
C454     C      0.300260000000     0.111220000000     0.331550000000    -0.00951348 
C455     C      0.354780000000     0.113060000000     0.344590000000    -0.0102734  
C456     C      0.318630000000     0.124950000000     0.312500000000    -0.0108622  
C457     C      0.372420000000     0.158840000000     0.177200000000    -0.01003    
C458     C      0.376040000000     0.193100000000     0.211580000000    -0.00900909 
C459     C      0.391070000000     0.174440000000     0.159690000000    -0.0110638  
C460     C      0.395770000000     0.208470000000     0.195310000000    -0.0103549  
C461     C      0.365490000000     0.021810000000     0.229220000000    -0.010005   
C462     C      0.410930000000     0.023860000000     0.212010000000    -0.0102754  
C463     C      0.372090000000     0.998130000000     0.246050000000    -0.00951098 
C464     C      0.418700000000     0.999140000000     0.227170000000    -0.010582   
C465     C      0.605230000000     0.207330000000     0.187190000000    -0.0104427  
C466     C      0.611890000000     0.172810000000     0.152610000000    -0.0116171  
C467     C      0.623610000000     0.192190000000     0.204990000000    -0.00896588 
C468     C      0.628190000000     0.156520000000     0.171940000000    -0.0108596  
C469     C      0.682800000000     0.134840000000     0.306990000000    -0.00885276 
C470     C      0.647040000000     0.135670000000     0.340070000000    -0.0106957  
C471     C      0.698290000000     0.115040000000     0.322890000000    -0.0100296  
C472     C      0.663530000000     0.117990000000     0.358020000000    -0.0116355  
C473     C      0.486450000000     0.147940000000     0.271930000000    -0.0106324  
C474     C      0.486770000000     0.107280000000     0.298560000000    -0.0106277  
C475     C      0.510320000000     0.138710000000     0.256570000000    -0.00985555 
C476     C      0.511710000000     0.097600000000     0.284850000000    -0.0106719  
C477     C      0.673030000000     0.900760000000     0.358150000000    -0.0112001  
C478     C      0.707740000000     0.908420000000     0.324010000000    -0.0106427  
C479     C      0.657830000000     0.883400000000     0.339050000000    -0.010653   
C480     C      0.693120000000     0.889920000000     0.305770000000    -0.00951164 
C481     C      0.497140000000     0.877280000000     0.262570000000    -0.0101394  
C482     C      0.497150000000     0.921750000000     0.285530000000    -0.0107163  
C483     C      0.521230000000     0.869660000000     0.278500000000    -0.0103255  
C484     C      0.522040000000     0.913250000000     0.300060000000    -0.0104321  
C485     C      0.643420000000     0.995470000000     0.239470000000    -0.0106102  
C486     C      0.601380000000     0.993710000000     0.214970000000    -0.0104318  
C487     C      0.634310000000     0.019610000000     0.254450000000    -0.00987842 
C488     C      0.591750000000     0.018900000000     0.228270000000    -0.0108638  
C489     C      0.859540000000     0.621710000000     0.158500000000    -0.0108709  
C490     C      0.822360000000     0.620890000000     0.191700000000    -0.00985797 
C491     C      0.842940000000     0.640380000000     0.141880000000    -0.0104925  
C492     C      0.807340000000     0.640360000000     0.174810000000    -0.010205   
C493     C      0.859420000000     0.650860000000     0.824740000000    -0.0105346  
C494     C      0.825130000000     0.647530000000     0.790660000000    -0.0100185  
C495     C      0.844730000000     0.631190000000     0.841870000000    -0.0104198  
C496     C      0.809650000000     0.627610000000     0.806640000000    -0.00991166 
C497     C      0.755640000000     0.577070000000     0.979550000000    -0.0105819  
C498     C      0.797560000000     0.602630000000     0.978530000000    -0.0110815  
C499     C      0.745080000000     0.594470000000     0.001210000000    -0.010253   
C500     C      0.788090000000     0.619500000000     0.001350000000    -0.0113373  
C501     C      0.662670000000     0.335100000000     0.141690000000    -0.0105162  
C502     C      0.696220000000     0.301120000000     0.131090000000    -0.0102491  
C503     C      0.677040000000     0.355290000000     0.124790000000    -0.0112527  
C504     C      0.710500000000     0.320160000000     0.113100000000    -0.0103264  
C505     C      0.860160000000     0.362070000000     0.175250000000    -0.0107245  
C506     C      0.825210000000     0.364540000000     0.208790000000    -0.00933682 
C507     C      0.844650000000     0.380720000000     0.157560000000    -0.0108073  
C508     C      0.809630000000     0.384270000000     0.192830000000    -0.00974797 
C509     C      0.735950000000     0.518100000000     0.116640000000    -0.0114722  
C510     C      0.785120000000     0.516180000000     0.107920000000    -0.0100555  
C511     C      0.739200000000     0.495690000000     0.136320000000    -0.0107016  
C512     C      0.787580000000     0.495320000000     0.128910000000    -0.0097025  
C513     C      0.851830000000     0.388780000000     0.843340000000    -0.0106985  
C514     C      0.815410000000     0.391830000000     0.809400000000    -0.00999119 
C515     C      0.835250000000     0.368390000000     0.857780000000    -0.00989028 
C516     C      0.800140000000     0.371040000000     0.824540000000    -0.00985589 
C517     C      0.702350000000     0.324150000000     0.918770000000    -0.0104798  
C518     C      0.672000000000     0.355660000000     0.895940000000    -0.0112791  
C519     C      0.694180000000     0.302470000000     0.900030000000    -0.0102316  
C520     C      0.662850000000     0.333350000000     0.878100000000    -0.0108537  
C521     C      0.783790000000     0.388920000000     0.018590000000    -0.0112324  
C522     C      0.743410000000     0.418000000000     0.018870000000    -0.0103605  
C523     C      0.794280000000     0.404340000000     0.995210000000    -0.0109573  
C524     C      0.755100000000     0.433910000000     0.996700000000    -0.0100873  
C525     C      0.730220000000     0.494500000000     0.881750000000    -0.0111221  
C526     C      0.780260000000     0.493590000000     0.877020000000    -0.00954477 
C527     C      0.729430000000     0.516860000000     0.861800000000    -0.0103488  
C528     C      0.777810000000     0.514640000000     0.856200000000    -0.00957458 
C529     C      0.328020000000     0.711570000000     0.112510000000    -0.0104476  
C530     C      0.362750000000     0.677480000000     0.123300000000    -0.0113505  
C531     C      0.308850000000     0.697240000000     0.130390000000    -0.010788   
C532     C      0.342520000000     0.663050000000     0.140140000000    -0.010938   
C533     C      0.381290000000     0.826630000000     0.208800000000    -0.00944749 
C534     C      0.380810000000     0.861580000000     0.174990000000    -0.0104816  
C535     C      0.399570000000     0.809700000000     0.192380000000    -0.010336   
C536     C      0.398070000000     0.844680000000     0.157250000000    -0.0108624  
C537     C      0.371860000000     0.858700000000     0.836760000000    -0.0103298  
C538     C      0.378740000000     0.824770000000     0.802830000000    -0.00996318 
C539     C      0.392080000000     0.845410000000     0.854450000000    -0.0107338  
C540     C      0.399640000000     0.811140000000     0.819270000000    -0.0100253  
C541     C      0.362350000000     0.680420000000     0.884030000000    -0.0111617  
C542     C      0.327850000000     0.716290000000     0.890180000000    -0.00950246 
C543     C      0.342720000000     0.665580000000     0.866830000000    -0.0102745  
C544     C      0.310000000000     0.701490000000     0.871550000000    -0.00955128 
C545     C      0.405120000000     0.790590000000     0.018040000000    -0.0114852  
C546     C      0.427780000000     0.746620000000     0.016790000000    -0.0101688  
C547     C      0.389380000000     0.782990000000     0.993740000000    -0.0111597  
C548     C      0.410430000000     0.738360000000     0.994250000000    -0.010079   
C549     C      0.629110000000     0.824970000000     0.204950000000    -0.00967669 
C550     C      0.620340000000     0.860230000000     0.171170000000    -0.010982   
C551     C      0.650640000000     0.813870000000     0.187500000000    -0.0100611  
C552     C      0.641590000000     0.847820000000     0.154010000000    -0.0102953  
C553     C      0.703660000000     0.712180000000     0.111630000000    -0.0101831  
C554     C      0.671120000000     0.680670000000     0.130580000000    -0.0112186  
C555     C      0.711060000000     0.692200000000     0.090920000000    -0.0100223  
C556     C      0.679620000000     0.659660000000     0.110950000000    -0.0110193  
C557     C      0.505500000000     0.733690000000     0.124850000000    -0.0114364  
C558     C      0.506310000000     0.783040000000     0.117120000000    -0.00942291 
C559     C      0.530020000000     0.736680000000     0.142080000000    -0.0110351  
C560     C      0.528800000000     0.785220000000     0.136370000000    -0.00999492 
C561     C      0.638960000000     0.855330000000     0.842120000000    -0.0104016  
C562     C      0.638080000000     0.818970000000     0.807800000000    -0.00992093 
C563     C      0.658240000000     0.838530000000     0.857750000000    -0.0104134  
C564     C      0.657620000000     0.803590000000     0.824400000000    -0.0101349  
C565     C      0.694900000000     0.699940000000     0.916940000000    -0.0105685  
C566     C      0.662090000000     0.672710000000     0.892400000000    -0.0110457  
C567     C      0.716580000000     0.691130000000     0.898430000000    -0.0107743  
C568     C      0.684020000000     0.663040000000     0.874370000000    -0.0113091  
C569     C      0.528830000000     0.788380000000     0.879410000000    -0.00998008 
C570     C      0.529100000000     0.740490000000     0.869530000000    -0.0106595  
C571     C      0.507010000000     0.784640000000     0.899310000000    -0.010202   
C572     C      0.505830000000     0.736110000000     0.888010000000    -0.0113897  
C573     C      0.634060000000     0.783610000000     0.017830000000    -0.0112315  
C574     C      0.604250000000     0.743820000000     0.017960000000    -0.0107711  
C575     C      0.619400000000     0.794110000000     0.994060000000    -0.0106012  
C576     C      0.589550000000     0.755070000000     0.994670000000    -0.0105072  
H1       H      0.610920000000     0.000970000000     0.730930000000     0.0412809  
H2       H      0.643070000000     0.999860000000     0.774890000000     0.0428754  
H3       H      0.624300000000     0.029950000000     0.806370000000     0.050736   
H4       H      0.581150000000     0.982210000000     0.733700000000     0.0479894  
H5       H      0.574150000000     0.030540000000     0.739180000000     0.047809   
H6       H      0.564110000000     0.011530000000     0.766810000000     0.0401627  
H7       H      0.630160000000     0.981020000000     0.801400000000     0.0501596  
H8       H      0.594170000000     0.011530000000     0.807570000000     0.0414345  
H9       H      0.507340000000     0.110290000000     0.729750000000     0.0437914  
H10      H      0.509220000000     0.103160000000     0.784820000000     0.0434892  
H11      H      0.536810000000     0.137760000000     0.803850000000     0.0481493  
H12      H      0.488460000000     0.138390000000     0.720190000000     0.0500672  
H13      H      0.538140000000     0.145280000000     0.720840000000     0.0501684  
H14      H      0.519370000000     0.168310000000     0.739670000000     0.0406473  
H15      H      0.489310000000     0.126300000000     0.802330000000     0.0482986  
H16      H      0.517170000000     0.162740000000     0.788600000000     0.0396489  
H17      H      0.449460000000     0.010180000000     0.762450000000     0.040973   
H18      H      0.422740000000     0.007760000000     0.805770000000     0.0419682  
H19      H      0.385630000000     0.037150000000     0.801620000000     0.0503864  
H20      H      0.439300000000     0.989580000000     0.735990000000     0.0491059  
H21      H      0.427080000000     0.035960000000     0.728850000000     0.0493964  
H22      H      0.398550000000     0.015240000000     0.731060000000     0.0419971  
H23      H      0.393460000000     0.987990000000     0.806200000000     0.0505373  
H24      H      0.371250000000     0.017380000000     0.776540000000     0.0424354  
H25      H      0.506610000000     0.913090000000     0.784230000000     0.0442168  
H26      H      0.504490000000     0.904720000000     0.728420000000     0.0442433  
H27      H      0.533810000000     0.868320000000     0.720510000000     0.0502017  
H28      H      0.485970000000     0.890610000000     0.801700000000     0.0482094  
H29      H      0.533320000000     0.878040000000     0.803250000000     0.0479389  
H30      H      0.512760000000     0.853400000000     0.788680000000     0.0390139  
H31      H      0.484410000000     0.877090000000     0.720010000000     0.0498555  
H32      H      0.514250000000     0.846600000000     0.740130000000     0.0405753  
H33      H      0.767220000000     0.007420000000     0.370920000000     0.041651   
H34      H      0.723990000000     0.003860000000     0.402340000000     0.0413799  
H35      H      0.735050000000     0.981040000000     0.443050000000     0.048551   
H36      H      0.792240000000     0.029940000000     0.381330000000     0.0504608  
H37      H      0.801740000000     0.982050000000     0.391550000000     0.0501564  
H38      H      0.802000000000     0.003550000000     0.419190000000     0.0419261  
H39      H      0.723070000000     0.026110000000     0.429370000000     0.0489646  
H40      H      0.761070000000     0.004130000000     0.449170000000     0.0407511  
H41      H      0.708310000000     0.118160000000     0.710580000000     0.0422319  
H42      H      0.674270000000     0.146860000000     0.681310000000     0.0430089  
H43      H      0.671690000000     0.126460000000     0.638940000000     0.0502776  
H44      H      0.695280000000     0.088750000000     0.724920000000     0.0484054  
H45      H      0.723230000000     0.079660000000     0.686390000000     0.0485015  
H46      H      0.689980000000     0.068460000000     0.682420000000     0.0402667  
H47      H      0.641880000000     0.133350000000     0.677540000000     0.0504984  
H48      H      0.658490000000     0.096710000000     0.652450000000     0.041608   
H49      H      0.783330000000     0.157290000000     0.510040000000     0.0394796  
H50      H      0.734070000000     0.165270000000     0.513770000000     0.040444   
H51      H      0.711900000000     0.135960000000     0.484420000000     0.0496766  
H52      H      0.798250000000     0.131850000000     0.529220000000     0.0480649  
H53      H      0.794490000000     0.120000000000     0.482600000000     0.0481505  
H54      H      0.776560000000     0.097870000000     0.503160000000     0.0438878  
H55      H      0.714570000000     0.143430000000     0.533250000000     0.0500785  
H56      H      0.720730000000     0.107670000000     0.503150000000     0.0438758  
H57      H      0.694850000000     0.924210000000     0.698990000000     0.0417071  
H58      H      0.655310000000     0.908980000000     0.665060000000     0.0419718  
H59      H      0.672500000000     0.872340000000     0.640410000000     0.0500539  
H60      H      0.697350000000     0.904950000000     0.728070000000     0.0489104  
H61      H      0.731940000000     0.893550000000     0.696050000000     0.0491886  
H62      H      0.710700000000     0.866310000000     0.703310000000     0.0414413  
H63      H      0.637490000000     0.880140000000     0.674600000000     0.0504788  
H64      H      0.675790000000     0.852580000000     0.669100000000     0.0420457  
H65      H      0.782760000000     0.854670000000     0.505270000000     0.039637   
H66      H      0.733290000000     0.848070000000     0.502010000000     0.0409813  
H67      H      0.712600000000     0.880460000000     0.529380000000     0.0502144  
H68      H      0.798650000000     0.877550000000     0.483830000000     0.0484135  
H69      H      0.795920000000     0.894450000000     0.528690000000     0.0490393  
H70      H      0.777530000000     0.914660000000     0.506620000000     0.0442991  
H71      H      0.714490000000     0.869230000000     0.481110000000     0.0499665  
H72      H      0.722510000000     0.906850000000     0.508560000000     0.0435391  
H73      H      0.801470000000     0.007380000000     0.589600000000     0.0416719  
H74      H      0.756820000000     0.005700000000     0.564990000000     0.040725   
H75      H      0.722040000000     0.983700000000     0.590050000000     0.0490601  
H76      H      0.804420000000     0.029420000000     0.616650000000     0.0504822  
H77      H      0.797020000000     0.981650000000     0.628910000000     0.0503152  
H78      H      0.773110000000     0.004040000000     0.641830000000     0.0426817  
H79      H      0.731520000000     0.028590000000     0.574070000000     0.0486478  
H80      H      0.726450000000     0.006460000000     0.616310000000     0.0419367  
H81      H      0.836820000000     0.163370000000     0.668010000000     0.0408337  
H82      H      0.801250000000     0.197980000000     0.663170000000     0.0403168  
H83      H      0.810140000000     0.228980000000     0.628300000000     0.0480212  
H84      H      0.838540000000     0.136940000000     0.644980000000     0.0502171  
H85      H      0.872290000000     0.173240000000     0.638590000000     0.0505133  
H86      H      0.852310000000     0.166420000000     0.610800000000     0.0436747  
H87      H      0.776870000000     0.194330000000     0.638170000000     0.0483832  
H88      H      0.809790000000     0.203160000000     0.604570000000     0.0429407  
H89      H      0.998370000000     0.285330000000     0.605570000000     0.0434881  
H90      H      0.998000000000     0.232030000000     0.621660000000     0.0435254  
H91      H      0.026500000000     0.230170000000     0.659110000000     0.0501367  
H92      H      0.976360000000     0.306070000000     0.623540000000     0.0486625  
H93      H      0.022790000000     0.311690000000     0.637340000000     0.0482712  
H94      H      0.001990000000     0.300020000000     0.663050000000     0.0397363  
H95      H      0.977560000000     0.225990000000     0.649320000000     0.0501317  
H96      H      0.005470000000     0.251890000000     0.677160000000     0.0409168  
H97      H      0.799540000000     0.201050000000     0.360630000000     0.0404005  
H98      H      0.833840000000     0.165390000000     0.353820000000     0.0413688  
H99      H      0.868670000000     0.169820000000     0.385420000000     0.0504599  
H100     H      0.774580000000     0.196560000000     0.384910000000     0.0480575  
H101     H      0.809640000000     0.228530000000     0.397760000000     0.0486418  
H102     H      0.807020000000     0.201160000000     0.419530000000     0.0425654  
H103     H      0.833320000000     0.136730000000     0.374180000000     0.0510566  
H104     H      0.846850000000     0.162170000000     0.411670000000     0.0441159  
H105     H      0.928760000000     0.249790000000     0.517830000000     0.0424379  
H106     H      0.906380000000     0.298050000000     0.518960000000     0.0425765  
H107     H      0.869310000000     0.296010000000     0.489760000000     0.0498522  
H108     H      0.915050000000     0.225500000000     0.539190000000     0.0495757  
H109     H      0.901490000000     0.217820000000     0.494040000000     0.0493974  
H110     H      0.873770000000     0.225400000000     0.514310000000     0.040687   
H111     H      0.877250000000     0.301210000000     0.538350000000     0.0499026  
H112     H      0.852590000000     0.272650000000     0.509990000000     0.041244   
H113     H      0.999380000000     0.287320000000     0.396490000000     0.040964   
H114     H      0.998770000000     0.238460000000     0.377230000000     0.0418275  
H115     H      0.028930000000     0.212670000000     0.402950000000     0.0505145  
H116     H      0.978570000000     0.293790000000     0.423900000000     0.0492717  
H117     H      0.025340000000     0.290060000000     0.436380000000     0.0487513  
H118     H      0.005470000000     0.265110000000     0.451340000000     0.0418115  
H119     H      0.979680000000     0.214590000000     0.394630000000     0.0502639  
H120     H      0.008990000000     0.216300000000     0.431440000000     0.0427241  
H121     H      0.148100000000     0.280420000000     0.521720000000     0.0416846  
H122     H      0.127690000000     0.232830000000     0.527080000000     0.041084   
H123     H      0.083820000000     0.233500000000     0.547680000000     0.0493972  
H124     H      0.132990000000     0.301860000000     0.498420000000     0.0499208  
H125     H      0.119760000000     0.310170000000     0.545410000000     0.0501074  
H126     H      0.092880000000     0.304310000000     0.523600000000     0.0423769  
H127     H      0.102370000000     0.223150000000     0.504750000000     0.0494596  
H128     H      0.072220000000     0.256160000000     0.523540000000     0.0421498  
H129     H      0.204090000000     0.215440000000     0.665030000000     0.0407901  
H130     H      0.171350000000     0.178240000000     0.673930000000     0.0414715  
H131     H      0.134090000000     0.183950000000     0.645530000000     0.050479   
H132     H      0.227640000000     0.211620000000     0.639330000000     0.0489926  
H133     H      0.191900000000     0.242760000000     0.628020000000     0.048926   
H134     H      0.192500000000     0.214820000000     0.606750000000     0.0433597  
H135     H      0.170680000000     0.150490000000     0.652390000000     0.0504243  
H136     H      0.153430000000     0.176890000000     0.617330000000     0.0433262  
H137     H      0.322350000000     0.097070000000     0.703670000000     0.0422595  
H138     H      0.359460000000     0.116740000000     0.668860000000     0.0426083  
H139     H      0.338650000000     0.153400000000     0.647330000000     0.0502447  
H140     H      0.320380000000     0.114380000000     0.733930000000     0.0492176  
H141     H      0.283590000000     0.125650000000     0.704480000000     0.0488147  
H142     H      0.303650000000     0.153590000000     0.712360000000     0.0409731  
H143     H      0.375830000000     0.146030000000     0.679510000000     0.0497986  
H144     H      0.335850000000     0.171410000000     0.677160000000     0.0417352  
H145     H      0.339140000000     0.865080000000     0.670710000000     0.0418408  
H146     H      0.305700000000     0.879920000000     0.706210000000     0.0412251  
H147     H      0.320300000000     0.919350000000     0.729260000000     0.048785   
H148     H      0.341260000000     0.884240000000     0.641540000000     0.0504226  
H149     H      0.377770000000     0.892620000000     0.674050000000     0.0503608  
H150     H      0.359570000000     0.921320000000     0.664790000000     0.0424919  
H151     H      0.284350000000     0.907140000000     0.699100000000     0.049048   
H152     H      0.321910000000     0.937520000000     0.699440000000     0.0421075  
H153     H      0.288430000000     0.015730000000     0.637210000000     0.0410519  
H154     H      0.239210000000     0.012630000000     0.655090000000     0.0419862  
H155     H      0.212830000000     0.043380000000     0.630590000000     0.0500692  
H156     H      0.296140000000     0.997070000000     0.608640000000     0.0487313  
H157     H      0.291300000000     0.044610000000     0.599410000000     0.0485595  
H158     H      0.267550000000     0.025080000000     0.582280000000     0.0412323  
H159     H      0.216270000000     0.993940000000     0.636110000000     0.0502111  
H160     H      0.217910000000     0.025450000000     0.601060000000     0.0419061  
H161     H      0.294770000000     0.916670000000     0.511200000000     0.0421905  
H162     H      0.244650000000     0.935050000000     0.507710000000     0.0412062  
H163     H      0.216420000000     0.902990000000     0.485470000000     0.0484453  
H164     H      0.300120000000     0.890680000000     0.534110000000     0.0503829  
H165     H      0.296520000000     0.875490000000     0.487480000000     0.0498769  
H166     H      0.273250000000     0.860510000000     0.509140000000     0.0416215  
H167     H      0.221240000000     0.921150000000     0.529890000000     0.0484987  
H168     H      0.224910000000     0.878170000000     0.508770000000     0.0406077  
H169     H      0.157280000000     0.162610000000     0.423880000000     0.0439829  
H170     H      0.198230000000     0.200120000000     0.430780000000     0.0429338  
H171     H      0.230020000000     0.194730000000     0.395550000000     0.0484499  
H172     H      0.135320000000     0.170450000000     0.397820000000     0.0510491  
H173     H      0.169650000000     0.136180000000     0.386730000000     0.0505421  
H174     H      0.169500000000     0.164440000000     0.365820000000     0.0412774  
H175     H      0.196200000000     0.227590000000     0.409040000000     0.0480245  
H176     H      0.204670000000     0.199600000000     0.371740000000     0.0402423  
H177     H      0.217010000000     0.003710000000     0.424410000000     0.0419616  
H178     H      0.264870000000     0.002230000000     0.445470000000     0.0407889  
H179     H      0.297080000000     0.981210000000     0.416460000000     0.0487019  
H180     H      0.212080000000     0.026230000000     0.398050000000     0.0503231  
H181     H      0.218840000000     0.978760000000     0.384390000000     0.0503915  
H182     H      0.241670000000     0.001610000000     0.370320000000     0.0420171  
H183     H      0.288600000000     0.025650000000     0.433990000000     0.0489965  
H184     H      0.289280000000     0.004240000000     0.391200000000     0.0414151  
H185     H      0.274510000000     0.169720000000     0.517840000000     0.0412032  
H186     H      0.224970000000     0.161420000000     0.516910000000     0.0401043  
H187     H      0.212990000000     0.120400000000     0.495370000000     0.0486205  
H188     H      0.294650000000     0.150720000000     0.539510000000     0.050071   
H189     H      0.295870000000     0.136150000000     0.492340000000     0.0502808  
H190     H      0.286920000000     0.110950000000     0.514950000000     0.0428632  
H191     H      0.210850000000     0.138890000000     0.539850000000     0.0484145  
H192     H      0.232230000000     0.101650000000     0.517980000000     0.0427155  
H193     H      0.012000000000     0.612740000000     0.798080000000     0.0421792  
H194     H      0.014230000000     0.581470000000     0.757710000000     0.0410654  
H195     H      0.993300000000     0.600970000000     0.719350000000     0.0488017  
H196     H      0.033040000000     0.641110000000     0.798290000000     0.0502096  
H197     H      0.985620000000     0.650740000000     0.786490000000     0.0504925  
H198     H      0.009100000000     0.660760000000     0.762450000000     0.0416709  
H199     H      0.038300000000     0.588390000000     0.733140000000     0.0488933  
H200     H      0.014830000000     0.628920000000     0.721150000000     0.041248   
H201     H      0.855060000000     0.311380000000     0.710970000000     0.0406048  
H202     H      0.843760000000     0.344160000000     0.675080000000     0.0414922  
H203     H      0.873840000000     0.380870000000     0.677450000000     0.0503268  
H204     H      0.880590000000     0.287590000000     0.705420000000     0.0484248  
H205     H      0.894540000000     0.323600000000     0.735020000000     0.0487195  
H206     H      0.914140000000     0.322250000000     0.706090000000     0.0424649  
H207     H      0.863070000000     0.344170000000     0.645900000000     0.0505298  
H208     H      0.901330000000     0.360610000000     0.668800000000     0.0430747  
H209     H      0.924170000000     0.518520000000     0.771610000000     0.0427013  
H210     H      0.908180000000     0.517370000000     0.719640000000     0.0432509  
H211     H      0.869810000000     0.489310000000     0.718150000000     0.0499962  
H212     H      0.906300000000     0.541200000000     0.791640000000     0.0485351  
H213     H      0.891950000000     0.495100000000     0.798460000000     0.04861    
H214     H      0.865930000000     0.515760000000     0.786620000000     0.0399047  
H215     H      0.880380000000     0.537810000000     0.712540000000     0.0499276  
H216     H      0.851540000000     0.511130000000     0.738790000000     0.0407406  
H217     H      0.157800000000     0.354370000000     0.680240000000     0.0415392  
H218     H      0.149060000000     0.321270000000     0.716580000000     0.0407372  
H219     H      0.110440000000     0.332420000000     0.742510000000     0.0484465  
H220     H      0.137010000000     0.354020000000     0.652070000000     0.0505565  
H221     H      0.127050000000     0.390370000000     0.684270000000     0.0506598  
H222     H      0.099640000000     0.369500000000     0.676930000000     0.0430149  
H223     H      0.123880000000     0.296870000000     0.712170000000     0.0487762  
H224     H      0.089560000000     0.330770000000     0.714470000000     0.0425541  
H225     H      0.004170000000     0.457150000000     0.763930000000     0.0410701  
H226     H      0.005270000000     0.431190000000     0.808150000000     0.0422097  
H227     H      0.978160000000     0.392420000000     0.803100000000     0.0504263  
H228     H      0.026530000000     0.447110000000     0.738860000000     0.049169   
H229     H      0.980850000000     0.432930000000     0.729900000000     0.0486513  
H230     H      0.002710000000     0.405430000000     0.733590000000     0.0413646  
H231     H      0.026450000000     0.402990000000     0.810100000000     0.0498837  
H232     H      0.999920000000     0.379000000000     0.779120000000     0.0417259  
H233     H      0.161810000000     0.526280000000     0.795420000000     0.0394505  
H234     H      0.170460000000     0.525790000000     0.747210000000     0.0407966  
H235     H      0.138900000000     0.497190000000     0.726720000000     0.0506644  
H236     H      0.137890000000     0.548670000000     0.808480000000     0.0480185  
H237     H      0.122390000000     0.502240000000     0.807930000000     0.0482598  
H238     H      0.101990000000     0.523430000000     0.788660000000     0.0442664  
H239     H      0.150640000000     0.545840000000     0.726170000000     0.0503256  
H240     H      0.112200000000     0.518990000000     0.733880000000     0.044433   
H241     H      0.197080000000     0.805470000000     0.416020000000     0.0432306  
H242     H      0.157860000000     0.845070000000     0.404340000000     0.0438768  
H243     H      0.177460000000     0.872750000000     0.371630000000     0.0508347  
H244     H      0.197830000000     0.779550000000     0.392450000000     0.0486642  
H245     H      0.234180000000     0.811990000000     0.386790000000     0.0486931  
H246     H      0.213140000000     0.809140000000     0.358950000000     0.0405566  
H247     H      0.141050000000     0.838650000000     0.374480000000     0.0500288  
H248     H      0.180240000000     0.845790000000     0.349290000000     0.0416242  
H249     H      0.808240000000     0.810390000000     0.401760000000     0.0436108  
H250     H      0.848660000000     0.850960000000     0.398860000000     0.0443148  
H251     H      0.875400000000     0.839750000000     0.361670000000     0.0504743  
H252     H      0.782180000000     0.815750000000     0.378920000000     0.0482143  
H253     H      0.814350000000     0.781410000000     0.364600000000     0.0484672  
H254     H      0.811380000000     0.808580000000     0.342540000000     0.0401188  
H255     H      0.841880000000     0.874550000000     0.373950000000     0.05047    
H256     H      0.847690000000     0.842380000000     0.340140000000     0.0413548  
H257     H      0.006270000000     0.792050000000     0.401290000000     0.0428721  
H258     H      0.002910000000     0.744320000000     0.424060000000     0.0417815  
H259     H      0.981100000000     0.712360000000     0.395410000000     0.0486079  
H260     H      0.029330000000     0.795010000000     0.375120000000     0.0504416  
H261     H      0.981800000000     0.789520000000     0.361040000000     0.0504669  
H262     H      0.004000000000     0.765350000000     0.348190000000     0.0414831  
H263     H      0.025730000000     0.719740000000     0.413130000000     0.0490518  
H264     H      0.004690000000     0.718840000000     0.370270000000     0.0406761  
H265     H      0.156070000000     0.859970000000     0.599030000000     0.0426218  
H266     H      0.195330000000     0.825290000000     0.585390000000     0.042037   
H267     H      0.231060000000     0.826210000000     0.617460000000     0.0490537  
H268     H      0.136710000000     0.850460000000     0.626530000000     0.0503117  
H269     H      0.172340000000     0.884220000000     0.636000000000     0.0501732  
H270     H      0.173730000000     0.855010000000     0.655510000000     0.041774   
H271     H      0.196300000000     0.795210000000     0.603600000000     0.0488907  
H272     H      0.208210000000     0.819070000000     0.643080000000     0.0411708  
H273     H      0.090840000000     0.706240000000     0.697500000000     0.0422101  
H274     H      0.109170000000     0.667040000000     0.664660000000     0.0428429  
H275     H      0.147210000000     0.684910000000     0.642360000000     0.0505189  
H276     H      0.108270000000     0.709340000000     0.727630000000     0.0488669  
H277     H      0.120830000000     0.744050000000     0.696070000000     0.0486669  
H278     H      0.148090000000     0.723470000000     0.705010000000     0.0409324  
H279     H      0.137770000000     0.649910000000     0.676020000000     0.0506122  
H280     H      0.164690000000     0.688970000000     0.672370000000     0.0416246  
H281     H      0.132770000000     0.789160000000     0.500330000000     0.0414206  
H282     H      0.152470000000     0.740890000000     0.499070000000     0.0418882  
H283     H      0.127390000000     0.715690000000     0.529980000000     0.0500842  
H284     H      0.105130000000     0.796120000000     0.479760000000     0.049794   
H285     H      0.091530000000     0.792230000000     0.525230000000     0.0499498  
H286     H      0.077180000000     0.766620000000     0.505880000000     0.0425331  
H287     H      0.134510000000     0.716720000000     0.480900000000     0.0500826  
H288     H      0.098050000000     0.718150000000     0.510780000000     0.0424852  
H289     H      0.812910000000     0.816670000000     0.576650000000     0.0418033  
H290     H      0.851430000000     0.851930000000     0.587410000000     0.0429239  
H291     H      0.841310000000     0.871770000000     0.629180000000     0.0507613  
H292     H      0.815700000000     0.785050000000     0.591930000000     0.0487905  
H293     H      0.782230000000     0.813180000000     0.613480000000     0.0491283  
H294     H      0.808950000000     0.804930000000     0.634800000000     0.0418187  
H295     H      0.875940000000     0.841660000000     0.610310000000     0.0512835  
H296     H      0.843740000000     0.840480000000     0.645180000000     0.042521   
H297     H      0.912880000000     0.662920000000     0.649540000000     0.0432424  
H298     H      0.912830000000     0.706690000000     0.683980000000     0.0431432  
H299     H      0.872810000000     0.732880000000     0.676490000000     0.0486064  
H300     H      0.888810000000     0.638510000000     0.657510000000     0.0504611  
H301     H      0.875590000000     0.669740000000     0.621180000000     0.0502049  
H302     H      0.852920000000     0.667980000000     0.647880000000     0.0413029  
H303     H      0.890390000000     0.703270000000     0.710680000000     0.0488829  
H304     H      0.852620000000     0.704300000000     0.681360000000     0.040818   
H305     H      0.914450000000     0.712630000000     0.492650000000     0.0418974  
H306     H      0.938940000000     0.758790000000     0.490020000000     0.0411871  
H307     H      0.912950000000     0.791340000000     0.465910000000     0.0488892  
H308     H      0.886360000000     0.710530000000     0.513630000000     0.0499777  
H309     H      0.875420000000     0.715480000000     0.465860000000     0.0498237  
H310     H      0.861320000000     0.740200000000     0.486410000000     0.0414772  
H311     H      0.927570000000     0.784420000000     0.511190000000     0.0485345  
H312     H      0.885660000000     0.786860000000     0.487580000000     0.040917   
H313     H      0.012740000000     0.736090000000     0.586920000000     0.0433119  
H314     H      0.011410000000     0.791700000000     0.596910000000     0.0438173  
H315     H      0.976860000000     0.797860000000     0.628410000000     0.0504942  
H316     H      0.030420000000     0.717960000000     0.611160000000     0.0486013  
H317     H      0.981880000000     0.714410000000     0.616260000000     0.0479944  
H318     H      0.997920000000     0.728580000000     0.643970000000     0.0396347  
H319     H      0.026840000000     0.800380000000     0.626940000000     0.0499083  
H320     H      0.993730000000     0.778040000000     0.651970000000     0.0408836  
H321     H      0.197950000000     0.438950000000     0.829810000000     0.0421877  
H322     H      0.161680000000     0.426570000000     0.867940000000     0.0428481  
H323     H      0.136280000000     0.389810000000     0.851670000000     0.050428   
H324     H      0.227060000000     0.418930000000     0.829410000000     0.0485504  
H325     H      0.195750000000     0.406540000000     0.794580000000     0.048632   
H326     H      0.201390000000     0.380210000000     0.817130000000     0.0409209  
H327     H      0.169730000000     0.398370000000     0.887210000000     0.0503414  
H328     H      0.164930000000     0.369180000000     0.850530000000     0.0415576  
H329     H      0.226930000000     0.409560000000     0.013280000000     0.0441224  
H330     H      0.284080000000     0.412380000000     0.014630000000     0.0433639  
H331     H      0.300190000000     0.374010000000     0.038520000000     0.0478552  
H332     H      0.215350000000     0.384330000000     0.991940000000     0.0503481  
H333     H      0.215710000000     0.371990000000     0.039770000000     0.0501896  
H334     H      0.233430000000     0.350050000000     0.018770000000     0.0406431  
H335     H      0.299240000000     0.389650000000     0.992610000000     0.0478164  
H336     H      0.282860000000     0.352220000000     0.017060000000     0.0395403  
H337     H      0.232440000000     0.511940000000     0.114910000000     0.042291   
H338     H      0.280240000000     0.513470000000     0.141420000000     0.0430308  
H339     H      0.308450000000     0.481550000000     0.120590000000     0.0504935  
H340     H      0.231630000000     0.530550000000     0.085360000000     0.0491577  
H341     H      0.236040000000     0.482690000000     0.077370000000     0.0483309  
H342     H      0.263510000000     0.501170000000     0.065170000000     0.0405202  
H343     H      0.305840000000     0.531190000000     0.125090000000     0.0500759  
H344     H      0.307670000000     0.499310000000     0.090500000000     0.0414076  
H345     H      0.169970000000     0.679610000000     0.846270000000     0.0411374  
H346     H      0.206070000000     0.674590000000     0.813140000000     0.0406209  
H347     H      0.232440000000     0.634700000000     0.818490000000     0.0490017  
H348     H      0.141250000000     0.659100000000     0.844260000000     0.0502756  
H349     H      0.174880000000     0.645460000000     0.878380000000     0.0504969  
H350     H      0.166340000000     0.620340000000     0.855560000000     0.0438699  
H351     H      0.201360000000     0.652940000000     0.785980000000     0.0486207  
H352     H      0.203770000000     0.614380000000     0.814840000000     0.0437627  
H353     H      0.304070000000     0.513830000000     0.926330000000     0.0415866  
H354     H      0.259830000000     0.517890000000     0.951850000000     0.0404457  
H355     H      0.226300000000     0.542060000000     0.927410000000     0.0487801  
H356     H      0.305270000000     0.491480000000     0.899390000000     0.050267   
H357     H      0.300290000000     0.539410000000     0.886890000000     0.0503476  
H358     H      0.274870000000     0.518330000000     0.874630000000     0.0421742  
H359     H      0.233180000000     0.496490000000     0.943010000000     0.0486915  
H360     H      0.228550000000     0.519030000000     0.901110000000     0.0415767  
H361     H      0.249230000000     0.672090000000     0.002090000000     0.0407348  
H362     H      0.297530000000     0.657620000000     0.002610000000     0.0396291  
H363     H      0.304670000000     0.617280000000     0.027100000000     0.0483236  
H364     H      0.226340000000     0.654300000000     0.982150000000     0.0498948  
H365     H      0.224510000000     0.643320000000     0.030200000000     0.0501549  
H366     H      0.229680000000     0.615670000000     0.009290000000     0.0434065  
H367     H      0.307890000000     0.631770000000     0.981190000000     0.0481394  
H368     H      0.282800000000     0.599360000000     0.006250000000     0.0427912  
H369     H      0.206180000000     0.637780000000     0.210690000000     0.0411818  
H370     H      0.170210000000     0.654390000000     0.177590000000     0.0419     
H371     H      0.176950000000     0.631640000000     0.137150000000     0.0499731  
H372     H      0.199700000000     0.607770000000     0.227870000000     0.0487519  
H373     H      0.232480000000     0.602250000000     0.192680000000     0.0490204  
H374     H      0.203790000000     0.582210000000     0.188050000000     0.0420023  
H375     H      0.142120000000     0.633660000000     0.172370000000     0.0502917  
H376     H      0.168510000000     0.600540000000     0.151240000000     0.0427016  
H377     H      0.094080000000     0.698100000000     0.313470000000     0.0426257  
H378     H      0.103310000000     0.660620000000     0.352860000000     0.0431826  
H379     H      0.140060000000     0.634140000000     0.338340000000     0.0505902  
H380     H      0.115970000000     0.725770000000     0.314290000000     0.0487738  
H381     H      0.127960000000     0.693410000000     0.280070000000     0.0484949  
H382     H      0.153500000000     0.698110000000     0.303690000000     0.0405036  
H383     H      0.130960000000     0.668140000000     0.373120000000     0.050375   
H384     H      0.161510000000     0.662220000000     0.337740000000     0.0415099  
H385     H      0.863010000000     0.702470000000     0.293710000000     0.0411349  
H386     H      0.850630000000     0.669540000000     0.329790000000     0.0419549  
H387     H      0.879020000000     0.631720000000     0.326100000000     0.0506621  
H388     H      0.889640000000     0.724960000000     0.299340000000     0.0492112  
H389     H      0.901670000000     0.688880000000     0.269160000000     0.0485381  
H390     H      0.921550000000     0.688850000000     0.297950000000     0.0424532  
H391     H      0.870690000000     0.668390000000     0.358470000000     0.0501652  
H392     H      0.907540000000     0.650550000000     0.334620000000     0.0426689  
H393     H      0.007840000000     0.589350000000     0.211730000000     0.042281   
H394     H      0.007340000000     0.571850000000     0.260910000000     0.0415184  
H395     H      0.027660000000     0.603850000000     0.290670000000     0.0486148  
H396     H      0.985840000000     0.615850000000     0.204170000000     0.0502677  
H397     H      0.033320000000     0.629630000000     0.211310000000     0.0503168  
H398     H      0.009910000000     0.645860000000     0.231880000000     0.0416892  
H399     H      0.983210000000     0.585940000000     0.282240000000     0.0487162  
H400     H      0.005280000000     0.628910000000     0.279860000000     0.0407731  
H401     H      0.863280000000     0.304200000000     0.307330000000     0.0408305  
H402     H      0.850560000000     0.342640000000     0.337450000000     0.0418062  
H403     H      0.875280000000     0.338380000000     0.377070000000     0.0498582  
H404     H      0.891920000000     0.307480000000     0.287190000000     0.0487799  
H405     H      0.898990000000     0.277620000000     0.324520000000     0.0493146  
H406     H      0.920710000000     0.305430000000     0.325160000000     0.0427364  
H407     H      0.872250000000     0.370470000000     0.339340000000     0.0504762  
H408     H      0.905800000000     0.345000000000     0.360920000000     0.043065   
H409     H      0.865680000000     0.498300000000     0.216650000000     0.0397303  
H410     H      0.852040000000     0.503050000000     0.264410000000     0.0410364  
H411     H      0.880380000000     0.475480000000     0.290320000000     0.0501786  
H412     H      0.892060000000     0.518280000000     0.204460000000     0.0483794  
H413     H      0.905230000000     0.471780000000     0.210880000000     0.0488268  
H414     H      0.924040000000     0.493850000000     0.230750000000     0.042802   
H415     H      0.871050000000     0.524280000000     0.285050000000     0.0501016  
H416     H      0.908660000000     0.495210000000     0.283070000000     0.0430203  
H417     H      0.104780000000     0.347360000000     0.366480000000     0.0426818  
H418     H      0.097200000000     0.307390000000     0.329500000000     0.0421     
H419     H      0.133300000000     0.308600000000     0.297960000000     0.0487933  
H420     H      0.131030000000     0.341080000000     0.388830000000     0.0501354  
H421     H      0.142720000000     0.372190000000     0.352120000000     0.0502401  
H422     H      0.163740000000     0.343960000000     0.354990000000     0.0414717  
H423     H      0.118220000000     0.279330000000     0.333640000000     0.0481868  
H424     H      0.157150000000     0.305420000000     0.323480000000     0.0408387  
H425     H      0.160870000000     0.408230000000     0.165480000000     0.0423426  
H426     H      0.194280000000     0.429830000000     0.199720000000     0.0415005  
H427     H      0.203380000000     0.399430000000     0.235810000000     0.0491197  
H428     H      0.173700000000     0.382510000000     0.145300000000     0.0505877  
H429     H      0.146440000000     0.366370000000     0.183210000000     0.0505299  
H430     H      0.179380000000     0.353610000000     0.182380000000     0.0423988  
H431     H      0.227820000000     0.418700000000     0.198770000000     0.04867    
H432     H      0.214270000000     0.374710000000     0.213370000000     0.0416935  
H433     H      0.006830000000     0.420700000000     0.274380000000     0.0420038  
H434     H      0.007520000000     0.398530000000     0.225360000000     0.0425385  
H435     H      0.038450000000     0.362480000000     0.227070000000     0.0500735  
H436     H      0.986360000000     0.404240000000     0.297630000000     0.0486814  
H437     H      0.033700000000     0.394520000000     0.304130000000     0.0484408  
H438     H      0.014780000000     0.365610000000     0.296960000000     0.0402496  
H439     H      0.989110000000     0.368640000000     0.222210000000     0.0499586  
H440     H      0.018820000000     0.345240000000     0.250500000000     0.0412752  
H441     H      0.078390000000     0.504210000000     0.249600000000     0.0410321  
H442     H      0.098960000000     0.508560000000     0.297710000000     0.0422472  
H443     H      0.135090000000     0.477820000000     0.301070000000     0.0501474  
H444     H      0.095250000000     0.521440000000     0.224170000000     0.04815    
H445     H      0.103970000000     0.473380000000     0.223700000000     0.0484761  
H446     H      0.133280000000     0.492570000000     0.228010000000     0.040881   
H447     H      0.128850000000     0.527130000000     0.300430000000     0.0505549  
H448     H      0.153350000000     0.494570000000     0.276290000000     0.0422626  
H449     H      0.673260000000     0.193410000000     0.813740000000     0.039658   
H450     H      0.671640000000     0.158480000000     0.847530000000     0.040316   
H451     H      0.637050000000     0.167740000000     0.878090000000     0.0504976  
H452     H      0.651940000000     0.191590000000     0.785980000000     0.0479862  
H453     H      0.638640000000     0.225770000000     0.818560000000     0.0480053  
H454     H      0.613580000000     0.201690000000     0.812630000000     0.0442745  
H455     H      0.648010000000     0.132300000000     0.845030000000     0.0504202  
H456     H      0.611940000000     0.161820000000     0.854450000000     0.0456794  
H457     H      0.599230000000     0.220790000000     0.003810000000     0.0427679  
H458     H      0.582610000000     0.271430000000     0.004650000000     0.0425647  
H459     H      0.615660000000     0.300010000000     0.025430000000     0.0488063  
H460     H      0.625410000000     0.213340000000     0.981670000000     0.0505902  
H461     H      0.639940000000     0.218960000000     0.028400000000     0.0500567  
H462     H      0.656100000000     0.240460000000     0.005810000000     0.041588   
H463     H      0.597350000000     0.293220000000     0.981400000000     0.0485175  
H464     H      0.640280000000     0.288940000000     0.002960000000     0.0403266  
H465     H      0.311600000000     0.311150000000     0.113990000000     0.0445197  
H466     H      0.353730000000     0.351410000000     0.117420000000     0.0455216  
H467     H      0.340970000000     0.379350000000     0.153210000000     0.0506863  
H468     H      0.315780000000     0.286210000000     0.138210000000     0.0481141  
H469     H      0.281390000000     0.319690000000     0.149730000000     0.0478768  
H470     H      0.307670000000     0.317150000000     0.172940000000     0.0396182  
H471     H      0.375590000000     0.344570000000     0.143790000000     0.0505299  
H472     H      0.341730000000     0.352220000000     0.175530000000     0.0404242  
H473     H      0.506630000000     0.261660000000     0.069060000000     0.0410707  
H474     H      0.510100000000     0.304890000000     0.096450000000     0.0421886  
H475     H      0.483380000000     0.299010000000     0.134840000000     0.05022    
H476     H      0.528350000000     0.234970000000     0.076900000000     0.0488083  
H477     H      0.483020000000     0.226440000000     0.091870000000     0.0492052  
H478     H      0.505590000000     0.228480000000     0.118590000000     0.04166    
H479     H      0.531840000000     0.304860000000     0.123920000000     0.0502422  
H480     H      0.504530000000     0.273470000000     0.146740000000     0.0418441  
H481     H      0.353990000000     0.357640000000     0.914600000000     0.0439639  
H482     H      0.313670000000     0.321150000000     0.926520000000     0.0429328  
H483     H      0.278410000000     0.325460000000     0.894380000000     0.0482864  
H484     H      0.373030000000     0.348970000000     0.886630000000     0.0505303  
H485     H      0.337890000000     0.383370000000     0.878390000000     0.0507201  
H486     H      0.335760000000     0.354710000000     0.858150000000     0.0411276  
H487     H      0.313110000000     0.292870000000     0.905700000000     0.0484619  
H488     H      0.301290000000     0.319790000000     0.868390000000     0.0404688  
H489     H      0.414720000000     0.207350000000     0.815900000000     0.042781   
H490     H      0.405900000000     0.166590000000     0.853600000000     0.0444579  
H491     H      0.367840000000     0.180060000000     0.878680000000     0.0507071  
H492     H      0.392620000000     0.205560000000     0.788840000000     0.0480147  
H493     H      0.379990000000     0.240020000000     0.821220000000     0.0481422  
H494     H      0.355040000000     0.215550000000     0.816060000000     0.0399715  
H495     H      0.378990000000     0.145440000000     0.845250000000     0.0506273  
H496     H      0.347420000000     0.180580000000     0.850230000000     0.0410426  
H497     H      0.429580000000     0.272530000000     0.010430000000     0.0424419  
H498     H      0.409280000000     0.223140000000     0.007540000000     0.042586   
H499     H      0.370870000000     0.222830000000     0.035250000000     0.04996    
H500     H      0.415210000000     0.296670000000     0.989330000000     0.0494912  
H501     H      0.399990000000     0.302330000000     0.034390000000     0.0491021  
H502     H      0.373330000000     0.294010000000     0.013050000000     0.0405462  
H503     H      0.381040000000     0.219270000000     0.987020000000     0.0502395  
H504     H      0.354280000000     0.246380000000     0.015080000000     0.041398   
H505     H      0.507310000000     0.228990000000     0.863090000000     0.0396804  
H506     H      0.511040000000     0.278670000000     0.854030000000     0.0409147  
H507     H      0.481630000000     0.301010000000     0.883220000000     0.0498378  
H508     H      0.527320000000     0.214870000000     0.888190000000     0.0485499  
H509     H      0.480500000000     0.218730000000     0.900960000000     0.0486323  
H510     H      0.501650000000     0.237790000000     0.921560000000     0.0430456  
H511     H      0.531090000000     0.298290000000     0.875200000000     0.0497125  
H512     H      0.501040000000     0.292350000000     0.910920000000     0.0428661  
H513     H      0.316970000000     0.916840000000     0.316380000000     0.0445168  
H514     H      0.358630000000     0.917790000000     0.352130000000     0.0422304  
H515     H      0.349290000000     0.882490000000     0.381990000000     0.0493609  
H516     H      0.320980000000     0.893840000000     0.290290000000     0.0506533  
H517     H      0.289670000000     0.877370000000     0.323020000000     0.0490558  
H518     H      0.318280000000     0.856820000000     0.320460000000     0.0409083  
H519     H      0.383090000000     0.893030000000     0.346690000000     0.0475196  
H520     H      0.352770000000     0.858130000000     0.356970000000     0.0411408  
H521     H      0.300690000000     0.089710000000     0.327910000000     0.0450992  
H522     H      0.341270000000     0.118030000000     0.384190000000     0.0480223  
H523     H      0.356640000000     0.091540000000     0.347700000000     0.0448539  
H524     H      0.279790000000     0.118040000000     0.327980000000     0.0457966  
H525     H      0.312580000000     0.119710000000     0.292450000000     0.049011   
H526     H      0.316390000000     0.146560000000     0.314640000000     0.0428371  
H527     H      0.336360000000     0.146150000000     0.363860000000     0.0436161  
H528     H      0.374540000000     0.121770000000     0.347950000000     0.044531   
H529     H      0.355990000000     0.200600000000     0.207190000000     0.041165   
H530     H      0.351920000000     0.164630000000     0.172350000000     0.0412226  
H531     H      0.384640000000     0.172160000000     0.139230000000     0.0503378  
H532     H      0.380030000000     0.196640000000     0.232470000000     0.0499776  
H533     H      0.393250000000     0.229750000000     0.199450000000     0.049057   
H534     H      0.415950000000     0.202760000000     0.201380000000     0.0441575  
H535     H      0.374540000000     0.137520000000     0.173050000000     0.0486546  
H536     H      0.411050000000     0.165750000000     0.161390000000     0.0426408  
H537     H      0.404060000000     0.017680000000     0.192480000000     0.0404641  
H538     H      0.358360000000     0.014560000000     0.210140000000     0.0405442  
H539     H      0.354610000000     0.985000000000     0.246690000000     0.0484978  
H540     H      0.428460000000     0.036640000000     0.209420000000     0.0477121  
H541     H      0.431590000000     0.986790000000     0.214750000000     0.0477465  
H542     H      0.430550000000     0.005240000000     0.244240000000     0.0421757  
H543     H      0.349350000000     0.033260000000     0.238350000000     0.0484544  
H544     H      0.375910000000     0.005030000000     0.266140000000     0.0430133  
H545     H      0.591480000000     0.165000000000     0.152600000000     0.0417565  
H546     H      0.584640000000     0.201570000000     0.191690000000     0.0439423  
H547     H      0.618490000000     0.196620000000     0.225460000000     0.0499571  
H548     H      0.620020000000     0.169990000000     0.132810000000     0.0494726  
H549     H      0.624710000000     0.135270000000     0.168360000000     0.0479123  
H550     H      0.649330000000     0.160570000000     0.168240000000     0.0410776  
H551     H      0.607330000000     0.228650000000     0.191370000000     0.049018   
H552     H      0.644040000000     0.199180000000     0.201540000000     0.0409913  
H553     H      0.650900000000     0.156450000000     0.345480000000     0.0408283  
H554     H      0.689250000000     0.154920000000     0.312620000000     0.040809   
H555     H      0.719590000000     0.118110000000     0.319100000000     0.0492509  
H556     H      0.625800000000     0.131700000000     0.343320000000     0.0479922  
H557     H      0.660790000000     0.124530000000     0.378390000000     0.0494451  
H558     H      0.655750000000     0.097640000000     0.356570000000     0.0418232  
H559     H      0.687400000000     0.132100000000     0.286110000000     0.0497624  
H560     H      0.693070000000     0.094920000000     0.316250000000     0.0448931  
H561     H      0.492820000000     0.118330000000     0.316150000000     0.0407792  
H562     H      0.493510000000     0.159650000000     0.288740000000     0.0405422  
H563     H      0.522420000000     0.156170000000     0.251490000000     0.0481932  
H564     H      0.474890000000     0.090120000000     0.304910000000     0.0488423  
H565     H      0.524620000000     0.087840000000     0.299330000000     0.0479731  
H566     H      0.505950000000     0.082480000000     0.270380000000     0.0421754  
H567     H      0.474190000000     0.160980000000     0.259590000000     0.0487017  
H568     H      0.503410000000     0.129690000000     0.238180000000     0.0429674  
H569     H      0.701550000000     0.928900000000     0.319690000000     0.0427265  
H570     H      0.664540000000     0.920870000000     0.357360000000     0.0414333  
H571     H      0.636400000000     0.885450000000     0.342750000000     0.0486165  
H572     H      0.729180000000     0.906870000000     0.320070000000     0.0486289  
H573     H      0.697060000000     0.895880000000     0.285420000000     0.0498833  
H574     H      0.701020000000     0.869750000000     0.308540000000     0.0414756  
H575     H      0.670040000000     0.893140000000     0.378120000000     0.0499808  
H576     H      0.663320000000     0.862610000000     0.342810000000     0.0416025  
H577     H      0.503050000000     0.934870000000     0.269320000000     0.0426713  
H578     H      0.503760000000     0.883490000000     0.242980000000     0.042688   
H579     H      0.533060000000     0.854990000000     0.267630000000     0.0484983  
H580     H      0.484650000000     0.933490000000     0.298880000000     0.0484242  
H581     H      0.534330000000     0.930780000000     0.304280000000     0.0479445  
H582     H      0.515970000000     0.904450000000     0.318850000000     0.0408276  
H583     H      0.484540000000     0.859590000000     0.260140000000     0.047859   
H584     H      0.514350000000     0.860250000000     0.296730000000     0.040582   
H585     H      0.611290000000     0.999360000000     0.196580000000     0.0408142  
H586     H      0.654070000000     0.002230000000     0.221870000000     0.0406075  
H587     H      0.651680000000     0.032330000000     0.258200000000     0.0480266  
H588     H      0.584210000000     0.981170000000     0.210000000000     0.0483206  
H589     H      0.580960000000     0.031030000000     0.213840000000     0.0476316  
H590     H      0.577470000000     0.013330000000     0.243620000000     0.0418019  
H591     H      0.657430000000     0.984050000000     0.251550000000     0.0488533  
H592     H      0.626470000000     0.013150000000     0.273520000000     0.0425892  
H593     H      0.814640000000     0.600830000000     0.187900000000     0.0431616  
H594     H      0.857640000000     0.601550000000     0.150430000000     0.0441819  
H595     H      0.847550000000     0.637170000000     0.121060000000     0.0502768  
H596     H      0.818380000000     0.625600000000     0.212370000000     0.0480558  
H597     H      0.785870000000     0.637920000000     0.178010000000     0.0481607  
H598     H      0.812830000000     0.660570000000     0.180940000000     0.0400405  
H599     H      0.880560000000     0.627500000000     0.156810000000     0.0503812  
H600     H      0.848520000000     0.660880000000     0.146890000000     0.0408918  
H601     H      0.817780000000     0.667500000000     0.795530000000     0.0398451  
H602     H      0.852710000000     0.670970000000     0.829950000000     0.0409767  
H603     H      0.846920000000     0.637290000000     0.862450000000     0.0501375  
H604     H      0.821490000000     0.644100000000     0.769700000000     0.0480077  
H605     H      0.788300000000     0.631150000000     0.803520000000     0.0481892  
H606     H      0.814170000000     0.607590000000     0.799260000000     0.043629   
H607     H      0.880860000000     0.649580000000     0.828730000000     0.0509076  
H608     H      0.854220000000     0.611630000000     0.839740000000     0.0452334  
H609     H      0.809230000000     0.586010000000     0.986480000000     0.0413345  
H610     H      0.765580000000     0.559860000000     0.988490000000     0.040326   
H611     H      0.731730000000     0.582570000000     0.013580000000     0.0488019  
H612     H      0.810740000000     0.614520000000     0.965980000000     0.0504408  
H613     H      0.805200000000     0.624410000000     0.013850000000     0.0502471  
H614     H      0.780160000000     0.638220000000     0.993460000000     0.0429578  
H615     H      0.738960000000     0.569660000000     0.967710000000     0.0483878  
H616     H      0.733270000000     0.610520000000     0.992370000000     0.0419559  
H617     H      0.705050000000     0.302810000000     0.150730000000     0.0405954  
H618     H      0.670070000000     0.337100000000     0.161870000000     0.0413361  
H619     H      0.675500000000     0.374920000000     0.134100000000     0.0503855  
H620     H      0.699300000000     0.280680000000     0.124160000000     0.0482979  
H621     H      0.731900000000     0.315780000000     0.113820000000     0.0486673  
H622     H      0.703660000000     0.316630000000     0.092940000000     0.04257    
H623     H      0.641280000000     0.339560000000     0.141810000000     0.0507248  
H624     H      0.666800000000     0.356440000000     0.105790000000     0.0432114  
H625     H      0.818380000000     0.344460000000     0.203570000000     0.0399292  
H626     H      0.854660000000     0.341570000000     0.170210000000     0.041187   
H627     H      0.846890000000     0.374050000000     0.137170000000     0.0501895  
H628     H      0.821120000000     0.367620000000     0.229730000000     0.0483691  
H629     H      0.788320000000     0.380710000000     0.196150000000     0.0484368  
H630     H      0.814220000000     0.404370000000     0.199930000000     0.0440754  
H631     H      0.881560000000     0.364490000000     0.171580000000     0.0501636  
H632     H      0.853560000000     0.400610000000     0.158980000000     0.0442017  
H633     H      0.783990000000     0.506230000000     0.088770000000     0.043476   
H634     H      0.728940000000     0.509530000000     0.098080000000     0.0436199  
H635     H      0.721160000000     0.483360000000     0.136410000000     0.0500531  
H636     H      0.803220000000     0.528430000000     0.108110000000     0.0483892  
H637     H      0.804950000000     0.482720000000     0.124870000000     0.0483772  
H638     H      0.790970000000     0.505380000000     0.147740000000     0.0394751  
H639     H      0.720450000000     0.531740000000     0.123700000000     0.0502235  
H640     H      0.741450000000     0.504530000000     0.155900000000     0.0408539  
H641     H      0.807430000000     0.411500000000     0.814480000000     0.0436716  
H642     H      0.849150000000     0.408140000000     0.852960000000     0.0457804  
H643     H      0.839570000000     0.369410000000     0.878860000000     0.0506622  
H644     H      0.811930000000     0.388670000000     0.788360000000     0.0478526  
H645     H      0.778690000000     0.373710000000     0.821290000000     0.0476732  
H646     H      0.805770000000     0.351370000000     0.816990000000     0.039553   
H647     H      0.872920000000     0.383340000000     0.845190000000     0.0508766  
H648     H      0.841010000000     0.348560000000     0.850760000000     0.040485   
H649     H      0.657850000000     0.357180000000     0.912290000000     0.042051   
H650     H      0.689770000000     0.322790000000     0.936340000000     0.0409531  
H651     H      0.695980000000     0.283140000000     0.909890000000     0.0487044  
H652     H      0.671410000000     0.374500000000     0.885090000000     0.0503966  
H653     H      0.641860000000     0.336450000000     0.872920000000     0.0505239  
H654     H      0.674590000000     0.334300000000     0.859950000000     0.0423376  
H655     H      0.723070000000     0.320820000000     0.924790000000     0.0483355  
H656     H      0.708020000000     0.302600000000     0.883350000000     0.0414954  
H657     H      0.729920000000     0.403000000000     0.010590000000     0.0420073  
H658     H      0.773890000000     0.370910000000     0.011280000000     0.0425467  
H659     H      0.805880000000     0.390970000000     0.982600000000     0.0504892  
H660     H      0.731540000000     0.431340000000     0.031290000000     0.0488105  
H661     H      0.738950000000     0.442750000000     0.985110000000     0.04851    
H662     H      0.766910000000     0.450200000000     0.005120000000     0.0401602  
H663     H      0.800650000000     0.382610000000     0.030810000000     0.050121   
H664     H      0.807720000000     0.419870000000     0.002530000000     0.0413845  
H665     H      0.785830000000     0.503160000000     0.895590000000     0.044245   
H666     H      0.728270000000     0.503200000000     0.901410000000     0.0445398  
H667     H      0.712590000000     0.530080000000     0.866110000000     0.0500341  
H668     H      0.796490000000     0.480050000000     0.871490000000     0.0476682  
H669     H      0.796260000000     0.526300000000     0.855260000000     0.0478243  
H670     H      0.775110000000     0.504740000000     0.837170000000     0.0393424  
H671     H      0.712890000000     0.481550000000     0.878630000000     0.0501363  
H672     H      0.726190000000     0.508080000000     0.842330000000     0.0405755  
H673     H      0.363560000000     0.667600000000     0.104110000000     0.0427376  
H674     H      0.324250000000     0.705160000000     0.092260000000     0.0418188  
H675     H      0.288410000000     0.700680000000     0.123550000000     0.0482527  
H676     H      0.382470000000     0.675460000000     0.132380000000     0.0502583  
H677     H      0.346680000000     0.641620000000     0.139740000000     0.0502493  
H678     H      0.344900000000     0.669940000000     0.160450000000     0.0412762  
H679     H      0.323970000000     0.733000000000     0.113640000000     0.0477965  
H680     H      0.310690000000     0.705790000000     0.150130000000     0.0406155  
H681     H      0.359890000000     0.857710000000     0.170010000000     0.0406078  
H682     H      0.360650000000     0.821020000000     0.204280000000     0.0401944  
H683     H      0.394730000000     0.788690000000     0.195890000000     0.0476482  
H684     H      0.384840000000     0.882680000000     0.171170000000     0.0481466  
H685     H      0.391620000000     0.847620000000     0.136870000000     0.050484   
H686     H      0.418660000000     0.851850000000     0.158730000000     0.0434884  
H687     H      0.384860000000     0.822430000000     0.229630000000     0.0491658  
H688     H      0.420130000000     0.813030000000     0.198900000000     0.044453   
H689     H      0.359340000000     0.815790000000     0.807380000000     0.0401195  
H690     H      0.352130000000     0.850580000000     0.841450000000     0.0410787  
H691     H      0.385390000000     0.847290000000     0.874870000000     0.0508611  
H692     H      0.382890000000     0.821380000000     0.781950000000     0.0479067  
H693     H      0.398500000000     0.789640000000     0.815680000000     0.0484844  
H694     H      0.419330000000     0.817960000000     0.812770000000     0.0428977  
H695     H      0.371480000000     0.880150000000     0.840730000000     0.0508085  
H696     H      0.411020000000     0.856160000000     0.852650000000     0.044563   
H697     H      0.321850000000     0.711540000000     0.910360000000     0.0437094  
H698     H      0.362030000000     0.671420000000     0.903650000000     0.0436501  
H699     H      0.345950000000     0.644080000000     0.868870000000     0.0505994  
H700     H      0.324810000000     0.737710000000     0.887200000000     0.0485508  
H701     H      0.289120000000     0.706210000000     0.875880000000     0.0484705  
H702     H      0.314340000000     0.708310000000     0.851520000000     0.0402054  
H703     H      0.382480000000     0.677660000000     0.876060000000     0.0502649  
H704     H      0.346640000000     0.671030000000     0.846330000000     0.041142   
H705     H      0.446410000000     0.754790000000     0.008890000000     0.0418999  
H706     H      0.422550000000     0.802130000000     0.011770000000     0.0422845  
H707     H      0.386320000000     0.800750000000     0.981580000000     0.0498817  
H708     H      0.432760000000     0.728930000000     0.028430000000     0.0491508  
H709     H      0.421130000000     0.723620000000     0.982380000000     0.0492901  
H710     H      0.392500000000     0.728760000000     0.002160000000     0.0407416  
H711     H      0.392830000000     0.803490000000     0.030500000000     0.050025   
H712     H      0.369750000000     0.775860000000     0.000060000000     0.0413616  
H713     H      0.600840000000     0.852980000000     0.164550000000     0.0440028  
H714     H      0.610810000000     0.813470000000     0.201710000000     0.0436875  
H715     H      0.652880000000     0.792470000000     0.191140000000     0.0485545  
H716     H      0.620670000000     0.881890000000     0.168400000000     0.0484304  
H717     H      0.636650000000     0.851100000000     0.133280000000     0.0504359  
H718     H      0.660550000000     0.857870000000     0.158100000000     0.0406216  
H719     H      0.635060000000     0.822180000000     0.225490000000     0.0494615  
H720     H      0.669500000000     0.823610000000     0.192640000000     0.0406448  
H721     H      0.682750000000     0.677800000000     0.148590000000     0.042623   
H722     H      0.717260000000     0.709710000000     0.128330000000     0.0420224  
H723     H      0.731890000000     0.695390000000     0.085230000000     0.0492335  
H724     H      0.650010000000     0.677870000000     0.135450000000     0.0503845  
H725     H      0.678580000000     0.640010000000     0.120280000000     0.0506319  
H726     H      0.665360000000     0.659830000000     0.094620000000     0.0418021  
H727     H      0.706410000000     0.732340000000     0.103820000000     0.0494673  
H728     H      0.698600000000     0.695740000000     0.073560000000     0.0413882  
H729     H      0.514610000000     0.782460000000     0.097190000000     0.043872   
H730     H      0.511990000000     0.726950000000     0.105390000000     0.0433126  
H731     H      0.542590000000     0.718920000000     0.140120000000     0.0498096  
H732     H      0.493990000000     0.801000000000     0.118760000000     0.0489958  
H733     H      0.540660000000     0.803010000000     0.131960000000     0.048458   
H734     H      0.520340000000     0.787640000000     0.156090000000     0.0399679  
H735     H      0.492680000000     0.718090000000     0.133070000000     0.0497223  
H736     H      0.523390000000     0.737960000000     0.162570000000     0.0407515  
H737     H      0.618110000000     0.810690000000     0.810930000000     0.0436104  
H738     H      0.619060000000     0.853240000000     0.850810000000     0.0458268  
H739     H      0.655910000000     0.842800000000     0.878740000000     0.0504477  
H740     H      0.643160000000     0.815950000000     0.787050000000     0.0476416  
H741     H      0.655090000000     0.782190000000     0.820930000000     0.0475265  
H742     H      0.677850000000     0.809100000000     0.818280000000     0.0394539  
H743     H      0.644770000000     0.876300000000     0.844010000000     0.0501946  
H744     H      0.678570000000     0.844090000000     0.852000000000     0.0403923  
H745     H      0.659660000000     0.658080000000     0.908220000000     0.0415264  
H746     H      0.694920000000     0.686550000000     0.933960000000     0.0404521  
H747     H      0.735620000000     0.690860000000     0.909010000000     0.048396   
H748     H      0.643310000000     0.673590000000     0.881420000000     0.0505887  
H749     H      0.679680000000     0.642540000000     0.868320000000     0.0501445  
H750     H      0.683950000000     0.675530000000     0.856710000000     0.042648   
H751     H      0.699400000000     0.720070000000     0.923980000000     0.0483925  
H752     H      0.718170000000     0.705860000000     0.882600000000     0.0417376  
H753     H      0.521090000000     0.743760000000     0.849750000000     0.0407059  
H754     H      0.519630000000     0.792750000000     0.860350000000     0.039526   
H755     H      0.494690000000     0.802680000000     0.899680000000     0.048479   
H756     H      0.541530000000     0.722550000000     0.868990000000     0.0501874  
H757     H      0.492730000000     0.720790000000     0.879710000000     0.0504074  
H758     H      0.513670000000     0.728420000000     0.906620000000     0.0437016  
H759     H      0.541140000000     0.805530000000     0.884970000000     0.0482609  
H760     H      0.516100000000     0.782310000000     0.918770000000     0.0433871  
H761     H      0.619270000000     0.729720000000     0.010770000000     0.041493   
H762     H      0.652020000000     0.773230000000     0.011040000000     0.0428507  
H763     H      0.633230000000     0.805630000000     0.981870000000     0.0506628  
H764     H      0.590110000000     0.732700000000     0.030180000000     0.0477971  
H765     H      0.581520000000     0.738670000000     0.982880000000     0.0480618  
H766     H      0.572690000000     0.766840000000     0.001980000000     0.0402561  
H767     H      0.640460000000     0.800490000000     0.029940000000     0.0504091  
H768     H      0.603700000000     0.807650000000     0.000900000000     0.041472   
In1      In     0.619490000000     0.760740000000     0.902810000000     2.41796    
In2      In     0.620150000000     0.762570000000     0.111240000000     2.42463    
In3      In     0.412190000000     0.762520000000     0.901360000000     2.44259    
In4      In     0.412200000000     0.760980000000     0.110380000000     2.42815    
In5      In     0.757430000000     0.403710000000     0.905090000000     2.42395    
In6      In     0.761680000000     0.402940000000     0.111970000000     2.43467    
In7      In     0.762930000000     0.605650000000     0.887590000000     2.42254    
In8      In     0.762650000000     0.609690000000     0.094480000000     2.43208    
In9      In     0.610120000000     0.904970000000     0.256810000000     2.39661    
In10     In     0.603720000000     0.111740000000     0.255540000000     2.40173    
In11     In     0.397250000000     0.109880000000     0.257620000000     2.40159    
In12     In     0.404940000000     0.907720000000     0.257560000000     2.4019     
In13     In     0.399830000000     0.262230000000     0.907340000000     2.43684    
In14     In     0.401120000000     0.260050000000     0.114260000000     2.44747    
In15     In     0.609440000000     0.253950000000     0.900580000000     2.428      
In16     In     0.611360000000     0.259300000000     0.106290000000     2.43267    
In17     In     0.117160000000     0.393340000000     0.266190000000     2.42524    
In18     In     0.905390000000     0.392370000000     0.256220000000     2.43254    
In19     In     0.902260000000     0.600910000000     0.242470000000     2.42826    
In20     In     0.112000000000     0.606410000000     0.255170000000     2.42332    
In21     In     0.262060000000     0.622840000000     0.902980000000     2.43148    
In22     In     0.263930000000     0.613090000000     0.108250000000     2.42901    
In23     In     0.259430000000     0.402440000000     0.115300000000     2.42116    
In24     In     0.257690000000     0.412810000000     0.914650000000     2.42565    
In25     In     0.902350000000     0.754500000000     0.593290000000     2.42166    
In26     In     0.110570000000     0.762870000000     0.607960000000     2.44842    
In27     In     0.899520000000     0.752950000000     0.384860000000     2.43085    
In28     In     0.109400000000     0.754490000000     0.400190000000     2.44933    
In29     In     0.108530000000     0.420250000000     0.769320000000     2.43245    
In30     In     0.897320000000     0.411520000000     0.761230000000     2.4264     
In31     In     0.907670000000     0.620590000000     0.745930000000     2.42345    
In32     In     0.117190000000     0.624900000000     0.762080000000     2.43752    
In33     In     0.253550000000     0.107970000000     0.415130000000     2.43797    
In34     In     0.260110000000     0.898010000000     0.405810000000     2.42527    
In35     In     0.257780000000     0.913760000000     0.612720000000     2.427      
In36     In     0.254140000000     0.126310000000     0.618840000000     2.43014    
In37     In     0.109270000000     0.256460000000     0.421230000000     2.42834    
In38     In     0.896990000000     0.254450000000     0.411810000000     2.45077    
In39     In     0.896200000000     0.261390000000     0.619820000000     2.43302    
In40     In     0.104360000000     0.270520000000     0.627500000000     2.43529    
In41     In     0.755390000000     0.900700000000     0.608930000000     2.44486    
In42     In     0.757730000000     0.109570000000     0.607750000000     2.4249     
In43     In     0.749810000000     0.109750000000     0.403930000000     2.43101    
In44     In     0.758430000000     0.900740000000     0.405960000000     2.43467    
In45     In     0.405910000000     0.908100000000     0.760320000000     2.43696    
In46     In     0.407440000000     0.118520000000     0.762050000000     2.44157    
In47     In     0.611790000000     0.899410000000     0.760880000000     2.42234    
In48     In     0.614060000000     0.110650000000     0.762190000000     2.41625    
N1       N      0.599180000000     0.032840000000     0.772850000000    -0.166181   
N2       N      0.608340000000     0.979150000000     0.765660000000    -0.166496   
N3       N      0.540000000000     0.140600000000     0.762270000000    -0.166192   
N4       N      0.486660000000     0.128000000000     0.760610000000    -0.16549    
N5       N      0.404370000000     0.039000000000     0.764180000000    -0.165891   
N6       N      0.416730000000     0.986230000000     0.771340000000    -0.166105   
N7       N      0.536060000000     0.874210000000     0.761740000000    -0.165948   
N8       N      0.483320000000     0.888970000000     0.760010000000    -0.165487   
N9       N      0.768610000000     0.979000000000     0.417430000000    -0.166692   
N10      N      0.756120000000     0.030230000000     0.403280000000    -0.166572   
N11      N      0.698810000000     0.102300000000     0.660410000000    -0.165969   
N12      N      0.667690000000     0.112870000000     0.703820000000    -0.166014   
N13      N      0.752210000000     0.123380000000     0.481460000000    -0.165623   
N14      N      0.756380000000     0.136820000000     0.533760000000    -0.165963   
N15      N      0.703970000000     0.882860000000     0.666360000000    -0.165791   
N16      N      0.665130000000     0.895400000000     0.702480000000    -0.165988   
N17      N      0.753550000000     0.891340000000     0.530990000000    -0.165445   
N18      N      0.756530000000     0.874130000000     0.479940000000    -0.165886   
N19      N      0.758460000000     0.980380000000     0.611500000000    -0.165967   
N20      N      0.768220000000     0.031590000000     0.594990000000    -0.165867   
N21      N      0.843160000000     0.202420000000     0.629010000000    -0.165542   
N22      N      0.806080000000     0.163720000000     0.640550000000    -0.166027   
N23      N      0.027230000000     0.270890000000     0.647840000000    -0.165904   
N24      N      0.974940000000     0.264670000000     0.632610000000    -0.165699   
N25      N      0.841020000000     0.200040000000     0.395980000000    -0.165163   
N26      N      0.802200000000     0.164780000000     0.380290000000    -0.16511    
N27      N      0.884550000000     0.256520000000     0.489360000000    -0.165636   
N28      N      0.897880000000     0.264350000000     0.541210000000    -0.166003   
N29      N      0.029660000000     0.250720000000     0.421240000000    -0.165872   
N30      N      0.976580000000     0.254590000000     0.407870000000    -0.1654     
N31      N      0.100420000000     0.272630000000     0.548910000000    -0.166078   
N32      N      0.118860000000     0.261940000000     0.499160000000    -0.16609    
N33      N      0.160740000000     0.214400000000     0.633200000000    -0.165568   
N34      N      0.200920000000     0.179210000000     0.645290000000    -0.16533    
N35      N      0.309220000000     0.139790000000     0.674170000000    -0.165648   
N36      N      0.350690000000     0.127200000000     0.707470000000    -0.165554   
N37      N      0.351360000000     0.908410000000     0.702800000000    -0.166024   
N38      N      0.310920000000     0.895380000000     0.668560000000    -0.165486   
N39      N      0.251310000000     0.046620000000     0.613400000000    -0.166123   
N40      N      0.256660000000     0.992860000000     0.623550000000    -0.16573    
N41      N      0.256330000000     0.888490000000     0.483980000000    -0.166399   
N42      N      0.261500000000     0.908220000000     0.534210000000    -0.165958   
N43      N      0.201550000000     0.163540000000     0.391770000000    -0.165485   
N44      N      0.163970000000     0.200070000000     0.407580000000    -0.165393   
N45      N      0.258480000000     0.977560000000     0.399220000000    -0.166412   
N46      N      0.249630000000     0.028340000000     0.417370000000    -0.166103   
N47      N      0.255170000000     0.124300000000     0.492110000000    -0.165736   
N48      N      0.252860000000     0.144480000000     0.542260000000    -0.166151   
N49      N      0.987130000000     0.627320000000     0.751660000000    -0.16671    
N50      N      0.038180000000     0.614260000000     0.766370000000    -0.166438   
N51      N      0.887850000000     0.354430000000     0.707010000000    -0.165822   
N52      N      0.872290000000     0.314080000000     0.673820000000    -0.165346   
N53      N      0.880850000000     0.489610000000     0.758440000000    -0.165997   
N54      N      0.896750000000     0.541590000000     0.750860000000    -0.166059   
N55      N      0.115200000000     0.363480000000     0.714390000000    -0.166036   
N56      N      0.129940000000     0.323650000000     0.680300000000    -0.165285   
N57      N      0.977150000000     0.410770000000     0.765450000000    -0.166211   
N58      N      0.029010000000     0.425840000000     0.775050000000    -0.166203   
N59      N      0.125910000000     0.497960000000     0.766460000000    -0.165362   
N60      N      0.143290000000     0.549800000000     0.767050000000    -0.165801   
N61      N      0.207480000000     0.844190000000     0.380070000000    -0.164869   
N62      N      0.166880000000     0.808130000000     0.387990000000    -0.165032   
N63      N      0.846680000000     0.808800000000     0.364070000000    -0.165509   
N64      N      0.811210000000     0.846470000000     0.381700000000    -0.165033   
N65      N      0.978950000000     0.750630000000     0.377370000000    -0.165965   
N66      N      0.029810000000     0.758330000000     0.396040000000    -0.16568    
N67      N      0.203560000000     0.857030000000     0.627180000000    -0.165704   
N68      N      0.164300000000     0.821670000000     0.612410000000    -0.165505   
N69      N      0.133770000000     0.716140000000     0.667260000000    -0.165622   
N70      N      0.120130000000     0.677250000000     0.702810000000    -0.165793   
N71      N      0.107930000000     0.753290000000     0.530130000000    -0.165712   
N72      N      0.120760000000     0.756630000000     0.477780000000    -0.165809   
N73      N      0.809950000000     0.844270000000     0.621700000000    -0.165186   
N74      N      0.847630000000     0.812250000000     0.598770000000    -0.165795   
N75      N      0.875050000000     0.703040000000     0.646890000000    -0.165683   
N76      N      0.893970000000     0.669680000000     0.685350000000    -0.165715   
N77      N      0.892690000000     0.754070000000     0.463410000000    -0.166103   
N78      N      0.908180000000     0.746830000000     0.514910000000    -0.16656    
N79      N      0.976920000000     0.756150000000     0.621480000000    -0.166272   
N80      N      0.031260000000     0.760170000000     0.614880000000    -0.165276   
N81      N      0.164160000000     0.398160000000     0.821310000000    -0.165502   
N82      N      0.199590000000     0.411480000000     0.860500000000    -0.166042   
N83      N      0.257940000000     0.374100000000     0.041700000000    -0.166021   
N84      N      0.256950000000     0.392250000000     0.990740000000    -0.165585   
N85      N      0.272240000000     0.479540000000     0.099000000000    -0.166403   
N86      N      0.267300000000     0.533440000000     0.107930000000    -0.165534   
N87      N      0.204480000000     0.635730000000     0.850020000000    -0.165753   
N88      N      0.169380000000     0.655020000000     0.813340000000    -0.165528   
N89      N      0.262250000000     0.543020000000     0.905040000000    -0.166463   
N90      N      0.269450000000     0.491450000000     0.921740000000    -0.166469   
N91      N      0.263380000000     0.626480000000     0.030680000000    -0.16541    
N92      N      0.266950000000     0.642740000000     0.979110000000    -0.166369   
N93      N      0.205960000000     0.614400000000     0.162290000000    -0.165405   
N94      N      0.169120000000     0.621260000000     0.202100000000    -0.165633   
N95      N      0.133590000000     0.661910000000     0.307500000000    -0.16581    
N96      N      0.119690000000     0.698050000000     0.345740000000    -0.165585   
N97      N      0.893770000000     0.657990000000     0.296730000000    -0.165416   
N98      N      0.880300000000     0.698490000000     0.330720000000    -0.165212   
N99      N      0.032990000000     0.617660000000     0.251400000000    -0.16621    
N100     N      0.982200000000     0.599120000000     0.242410000000    -0.166352   
N101     N      0.890680000000     0.307140000000     0.353440000000    -0.165117   
N102     N      0.882520000000     0.340710000000     0.311470000000    -0.165193   
N103     N      0.896270000000     0.471500000000     0.251810000000    -0.166132   
N104     N      0.881860000000     0.523830000000     0.244700000000    -0.166307   
N105     N      0.137830000000     0.342160000000     0.323120000000    -0.165592   
N106     N      0.120840000000     0.309270000000     0.363150000000    -0.165908   
N107     N      0.173400000000     0.382100000000     0.211520000000    -0.165508   
N108     N      0.201730000000     0.402390000000     0.169840000000    -0.166264   
N109     N      0.038690000000     0.378100000000     0.265860000000    -0.165886   
N110     N      0.985270000000     0.389030000000     0.258580000000    -0.166152   
N111     N      0.121070000000     0.472940000000     0.262000000000    -0.165689   
N112     N      0.110420000000     0.526940000000     0.262840000000    -0.165764   
N113     N      0.631850000000     0.197880000000     0.849260000000    -0.165358   
N114     N      0.648310000000     0.160230000000     0.813740000000    -0.166014   
N115     N      0.628210000000     0.259640000000     0.029460000000    -0.165723   
N116     N      0.609210000000     0.252470000000     0.979310000000    -0.166292   
N117     N      0.309540000000     0.351280000000     0.149730000000    -0.165638   
N118     N      0.347110000000     0.314540000000     0.135070000000    -0.165013   
N119     N      0.480860000000     0.261690000000     0.115220000000    -0.166182   
N120     N      0.532630000000     0.270250000000     0.099870000000    -0.166182   
N121     N      0.306490000000     0.356350000000     0.887080000000    -0.1654     
N122     N      0.345290000000     0.319920000000     0.899930000000    -0.16549    
N123     N      0.374790000000     0.211710000000     0.851850000000    -0.165397   
N124     N      0.390470000000     0.173630000000     0.816230000000    -0.165196   
N125     N      0.385010000000     0.262680000000     0.037360000000    -0.166029   
N126     N      0.400170000000     0.257060000000     0.985810000000    -0.165975   
N127     N      0.478870000000     0.260800000000     0.895880000000    -0.16584    
N128     N      0.531790000000     0.256560000000     0.881890000000    -0.166347   
N129     N      0.317710000000     0.880120000000     0.354330000000    -0.165764   
N130     N      0.353570000000     0.897100000000     0.317050000000    -0.16653    
N131     N      0.346160000000     0.117790000000     0.317730000000    -0.167146   
N132     N      0.308140000000     0.116210000000     0.358560000000    -0.16608    
N133     N      0.392450000000     0.202280000000     0.167580000000    -0.165405   
N134     N      0.377560000000     0.165240000000     0.204480000000    -0.165895   
N135     N      0.395650000000     0.984140000000     0.236520000000    -0.166479   
N136     N      0.389420000000     0.037320000000     0.225460000000    -0.167294   
N137     N      0.622020000000     0.164080000000     0.198770000000    -0.16615    
N138     N      0.610940000000     0.200820000000     0.159970000000    -0.165903   
N139     N      0.691580000000     0.117610000000     0.350550000000    -0.165797   
N140     N      0.654740000000     0.131780000000     0.312890000000    -0.166406   
N141     N      0.525640000000     0.118990000000     0.271160000000    -0.166345   
N142     N      0.472060000000     0.124920000000     0.281380000000    -0.165906   
N143     N      0.664970000000     0.890030000000     0.312210000000    -0.165937   
N144     N      0.701100000000     0.902300000000     0.351130000000    -0.166214   
N145     N      0.536150000000     0.893430000000     0.284840000000    -0.166743   
N146     N      0.482540000000     0.899190000000     0.274620000000    -0.165827   
N147     N      0.613400000000     0.033860000000     0.240430000000    -0.166621   
N148     N      0.620370000000     0.980120000000     0.231640000000    -0.166167   
N149     N      0.814990000000     0.636470000000     0.147700000000    -0.165831   
N150     N      0.850790000000     0.621240000000     0.185820000000    -0.165152   
N151     N      0.816780000000     0.628810000000     0.834370000000    -0.165077   
N152     N      0.853030000000     0.645690000000     0.797520000000    -0.165407   
N153     N      0.766990000000     0.606160000000     0.015940000000    -0.166005   
N154     N      0.774880000000     0.592020000000     0.964310000000    -0.166149   
N155     N      0.704670000000     0.347660000000     0.120160000000    -0.165681   
N156     N      0.668360000000     0.308440000000     0.132380000000    -0.165512   
N157     N      0.816650000000     0.382620000000     0.165110000000    -0.165036   
N158     N      0.853150000000     0.367120000000     0.202350000000    -0.165558   
N159     N      0.762910000000     0.480460000000     0.130210000000    -0.165759   
N160     N      0.761050000000     0.531890000000     0.111740000000    -0.16571    
N161     N      0.807400000000     0.372890000000     0.851950000000    -0.16576    
N162     N      0.843710000000     0.391260000000     0.815930000000    -0.16541    
N163     N      0.667420000000     0.307730000000     0.890550000000    -0.165599   
N164     N      0.698320000000     0.349970000000     0.906540000000    -0.166575   
N165     N      0.772370000000     0.416860000000     0.981330000000    -0.166301   
N166     N      0.764460000000     0.404530000000     0.033350000000    -0.166397   
N167     N      0.754670000000     0.530750000000     0.861920000000    -0.16584    
N168     N      0.755140000000     0.479520000000     0.880710000000    -0.16562    
N169     N      0.315740000000     0.669260000000     0.131380000000    -0.165562   
N170     N      0.355510000000     0.705280000000     0.119250000000    -0.165494   
N171     N      0.397560000000     0.816660000000     0.164700000000    -0.164961   
N172     N      0.385230000000     0.854390000000     0.202180000000    -0.166457   
N173     N      0.396430000000     0.817730000000     0.846970000000    -0.16494    
N174     N      0.378180000000     0.852710000000     0.809660000000    -0.165726   
N175     N      0.315820000000     0.673390000000     0.873600000000    -0.165225   
N176     N      0.355590000000     0.708560000000     0.886560000000    -0.165398   
N177     N      0.402650000000     0.761760000000     0.979420000000    -0.166191   
N178     N      0.414360000000     0.767060000000     0.031990000000    -0.166192   
N179     N      0.644090000000     0.819850000000     0.160470000000    -0.165449   
N180     N      0.623880000000     0.852780000000     0.198620000000    -0.166801   
N181     N      0.706040000000     0.665450000000     0.100620000000    -0.165773   
N182     N      0.676600000000     0.707040000000     0.120240000000    -0.165672   
N183     N      0.544170000000     0.760900000000     0.135400000000    -0.165921   
N184     N      0.491170000000     0.758760000000     0.121710000000    -0.165748   
N185     N      0.653830000000     0.810780000000     0.851610000000    -0.166162   
N186     N      0.637580000000     0.847190000000     0.814630000000    -0.165149   
N187     N      0.709840000000     0.665460000000     0.887090000000    -0.166496   
N188     N      0.669210000000     0.698200000000     0.903930000000    -0.166072   
N189     N      0.491600000000     0.760840000000     0.893300000000    -0.165739   
N190     N      0.543920000000     0.763900000000     0.877510000000    -0.166253   
N191     N      0.607170000000     0.772300000000     0.979820000000    -0.166107   
N192     N      0.617650000000     0.764870000000     0.032470000000    -0.166561   
O1       O      0.601170000000     0.749760000000     0.941590000000    -0.511821   
O2       O      0.626240000000     0.783150000000     0.940670000000    -0.491054   
O3       O      0.629990000000     0.718170000000     0.892970000000    -0.492934   
O4       O      0.582650000000     0.741610000000     0.885470000000    -0.490031   
O5       O      0.638170000000     0.800140000000     0.892210000000    -0.492656   
O6       O      0.581680000000     0.782510000000     0.893740000000    -0.51398    
O7       O      0.658120000000     0.740980000000     0.913510000000    -0.512944   
O8       O      0.636350000000     0.770690000000     0.863070000000    -0.511803   
O9       O      0.635480000000     0.776720000000     0.150140000000    -0.51092    
O10      O      0.630260000000     0.805260000000     0.120410000000    -0.490148   
O11      O      0.633900000000     0.721900000000     0.124560000000    -0.492162   
O12      O      0.583930000000     0.740650000000     0.126850000000    -0.489099   
O13      O      0.630490000000     0.781250000000     0.072200000000    -0.495153   
O14      O      0.580780000000     0.781580000000     0.119200000000    -0.515695   
O15      O      0.661920000000     0.747760000000     0.107590000000    -0.514284   
O16      O      0.606080000000     0.747420000000     0.072050000000    -0.515129   
O17      O      0.407690000000     0.775860000000     0.859720000000    -0.514792   
O18      O      0.400300000000     0.804000000000     0.889470000000    -0.494441   
O19      O      0.399140000000     0.721380000000     0.888950000000    -0.492785   
O20      O      0.450540000000     0.741510000000     0.890660000000    -0.493627   
O21      O      0.398950000000     0.781890000000     0.939410000000    -0.492339   
O22      O      0.452580000000     0.781140000000     0.903650000000    -0.517396   
O23      O      0.369780000000     0.750100000000     0.896970000000    -0.517201   
O24      O      0.416900000000     0.744190000000     0.940930000000    -0.520631   
O25      O      0.422150000000     0.745740000000     0.070440000000    -0.518627   
O26      O      0.402400000000     0.782480000000     0.072450000000    -0.490287   
O27      O      0.398590000000     0.719620000000     0.121570000000    -0.49539    
O28      O      0.450130000000     0.739040000000     0.121570000000    -0.486596   
O29      O      0.400960000000     0.802640000000     0.122300000000    -0.492361   
O30      O      0.452370000000     0.779650000000     0.112150000000    -0.516459   
O31      O      0.369570000000     0.747290000000     0.109860000000    -0.513756   
O32      O      0.405570000000     0.773970000000     0.152030000000    -0.51278    
O33      O      0.748020000000     0.421940000000     0.944140000000    -0.514652   
O34      O      0.782090000000     0.397910000000     0.941840000000    -0.490296   
O35      O      0.715480000000     0.390450000000     0.895520000000    -0.494885   
O36      O      0.735030000000     0.440750000000     0.892930000000    -0.489449   
O37      O      0.797040000000     0.386520000000     0.893300000000    -0.493053   
O38      O      0.776830000000     0.441380000000     0.891460000000    -0.512872   
O39      O      0.740260000000     0.364010000000     0.915970000000    -0.516324   
O40      O      0.767030000000     0.388860000000     0.864610000000    -0.511555   
O41      O      0.774480000000     0.393460000000     0.152910000000    -0.515344   
O42      O      0.803110000000     0.389680000000     0.122960000000    -0.491694   
O43      O      0.719820000000     0.390390000000     0.122770000000    -0.494424   
O44      O      0.741450000000     0.440640000000     0.126040000000    -0.489594   
O45      O      0.780910000000     0.392030000000     0.073230000000    -0.49419    
O46      O      0.782060000000     0.442190000000     0.116090000000    -0.515485   
O47      O      0.746920000000     0.360890000000     0.110940000000    -0.514779   
O48      O      0.746530000000     0.415760000000     0.072700000000    -0.518834   
O49      O      0.774760000000     0.617600000000     0.846850000000    -0.510823   
O50      O      0.804100000000     0.619230000000     0.876260000000    -0.490957   
O51      O      0.722820000000     0.623200000000     0.876960000000    -0.495731   
O52      O      0.737580000000     0.570530000000     0.875370000000    -0.488927   
O53      O      0.787330000000     0.609250000000     0.924780000000    -0.490859   
O54      O      0.779220000000     0.566600000000     0.873990000000    -0.512838   
O55      O      0.749860000000     0.647180000000     0.897550000000    -0.515903   
O56      O      0.751040000000     0.588650000000     0.926570000000    -0.514374   
O57      O      0.747170000000     0.597570000000     0.055080000000    -0.516386   
O58      O      0.783600000000     0.618040000000     0.055970000000    -0.491753   
O59      O      0.721500000000     0.623200000000     0.106560000000    -0.491638   
O60      O      0.741230000000     0.572590000000     0.108190000000    -0.491791   
O61      O      0.803630000000     0.624040000000     0.106150000000    -0.492965   
O62      O      0.782020000000     0.569940000000     0.099410000000    -0.51714    
O63      O      0.747200000000     0.650980000000     0.088950000000    -0.516182   
O64      O      0.773980000000     0.622170000000     0.135210000000    -0.514609   
O65      O      0.597140000000     0.941160000000     0.233460000000    -0.493884   
O66      O      0.632470000000     0.943700000000     0.255210000000    -0.503397   
O67      O      0.622090000000     0.896150000000     0.298750000000    -0.499071   
O68      O      0.572470000000     0.881130000000     0.261180000000    -0.507934   
O69      O      0.613110000000     0.894080000000     0.213760000000    -0.499315   
O70      O      0.574220000000     0.917820000000     0.280650000000    -0.498775   
O71      O      0.652260000000     0.899530000000     0.270450000000    -0.495769   
O72      O      0.620820000000     0.864410000000     0.241600000000    -0.500992   
O73      O      0.610450000000     0.152830000000     0.240330000000    -0.504201   
O74      O      0.614740000000     0.121630000000     0.213290000000    -0.495369   
O75      O      0.612830000000     0.122380000000     0.298040000000    -0.494521   
O76      O      0.566360000000     0.099940000000     0.277650000000    -0.497613   
O77      O      0.626220000000     0.073190000000     0.258420000000    -0.506315   
O78      O      0.564130000000     0.132190000000     0.251680000000    -0.505305   
O79      O      0.644300000000     0.120800000000     0.270990000000    -0.504938   
O80      O      0.592410000000     0.073660000000     0.234350000000    -0.498745   
O81      O      0.412820000000     0.075270000000     0.233590000000    -0.50132    
O82      O      0.374520000000     0.072210000000     0.249650000000    -0.510884   
O83      O      0.387030000000     0.108030000000     0.300930000000    -0.497063   
O84      O      0.434290000000     0.099750000000     0.280960000000    -0.493208   
O85      O      0.387160000000     0.122620000000     0.216320000000    -0.500895   
O86      O      0.434730000000     0.134330000000     0.257950000000    -0.503859   
O87      O      0.357110000000     0.119430000000     0.274550000000    -0.501411   
O88      O      0.388500000000     0.151910000000     0.245700000000    -0.494468   
O89      O      0.395780000000     0.866300000000     0.243900000000    -0.501662   
O90      O      0.395670000000     0.896480000000     0.215440000000    -0.500984   
O91      O      0.395820000000     0.902090000000     0.301040000000    -0.495897   
O92      O      0.443440000000     0.884820000000     0.257040000000    -0.504893   
O93      O      0.381240000000     0.945480000000     0.254660000000    -0.503592   
O94      O      0.442710000000     0.920710000000     0.278030000000    -0.495983   
O95      O      0.364320000000     0.901440000000     0.274080000000    -0.504591   
O96      O      0.418610000000     0.944980000000     0.236390000000    -0.495848   
O97      O      0.408040000000     0.278280000000     0.947310000000    -0.519468   
O98      O      0.391230000000     0.240090000000     0.945180000000    -0.490716   
O99      O      0.387890000000     0.304310000000     0.897080000000    -0.493071   
O100     O      0.438620000000     0.282010000000     0.895480000000    -0.491704   
O101     O      0.383200000000     0.222710000000     0.894430000000    -0.494561   
O102     O      0.439200000000     0.241540000000     0.905690000000    -0.517823   
O103     O      0.358060000000     0.277550000000     0.909000000000    -0.515738   
O104     O      0.391380000000     0.251450000000     0.865480000000    -0.514769   
O105     O      0.399620000000     0.245180000000     0.155560000000    -0.51652    
O106     O      0.392270000000     0.217540000000     0.125430000000    -0.496452   
O107     O      0.389870000000     0.301150000000     0.127820000000    -0.495424   
O108     O      0.440280000000     0.279230000000     0.125650000000    -0.493624   
O109     O      0.384600000000     0.241650000000     0.077070000000    -0.492651   
O110     O      0.441050000000     0.243760000000     0.103870000000    -0.520505   
O111     O      0.359420000000     0.272720000000     0.123260000000    -0.51522    
O112     O      0.401250000000     0.279980000000     0.075210000000    -0.519735   
O113     O      0.620820000000     0.240300000000     0.860240000000    -0.512391   
O114     O      0.621950000000     0.212040000000     0.890630000000    -0.49097    
O115     O      0.624450000000     0.293680000000     0.886050000000    -0.492195   
O116     O      0.572550000000     0.276080000000     0.886840000000    -0.491622   
O117     O      0.616530000000     0.233250000000     0.939410000000    -0.492127   
O118     O      0.569090000000     0.235570000000     0.896150000000    -0.516803   
O119     O      0.651620000000     0.267740000000     0.904270000000    -0.514484   
O120     O      0.601140000000     0.272060000000     0.939920000000    -0.516956   
O121     O      0.614310000000     0.279170000000     0.067210000000    -0.516077   
O122     O      0.627270000000     0.239460000000     0.069600000000    -0.491729   
O123     O      0.625010000000     0.298150000000     0.123870000000    -0.493567   
O124     O      0.573790000000     0.282990000000     0.114070000000    -0.48996    
O125     O      0.616270000000     0.215990000000     0.118020000000    -0.492342   
O126     O      0.570790000000     0.247160000000     0.093080000000    -0.518523   
O127     O      0.653980000000     0.269260000000     0.115130000000    -0.514764   
O128     O      0.607570000000     0.244010000000     0.147330000000    -0.518162   
O129     O      0.159310000000     0.394510000000     0.252060000000    -0.514471   
O130     O      0.130660000000     0.378590000000     0.226410000000    -0.490412   
O131     O      0.130830000000     0.384160000000     0.307550000000    -0.491862   
O132     O      0.126680000000     0.433630000000     0.283760000000    -0.49071    
O133     O      0.079850000000     0.377260000000     0.246840000000    -0.491695   
O134     O      0.109630000000     0.432270000000     0.246140000000    -0.514571   
O135     O      0.125440000000     0.352300000000     0.281400000000    -0.513982   
O136     O      0.076440000000     0.394840000000     0.284080000000    -0.516039   
O137     O      0.944740000000     0.398500000000     0.276040000000    -0.517709   
O138     O      0.945310000000     0.380810000000     0.238760000000    -0.493772   
O139     O      0.888270000000     0.382920000000     0.296110000000    -0.490384   
O140     O      0.893730000000     0.432060000000     0.273850000000    -0.492738   
O141     O      0.895420000000     0.376710000000     0.215770000000    -0.489924   
O142     O      0.906250000000     0.431060000000     0.234580000000    -0.518291   
O143     O      0.901640000000     0.351280000000     0.272460000000    -0.515582   
O144     O      0.864110000000     0.383600000000     0.242350000000    -0.514272   
O145     O      0.861320000000     0.611130000000     0.228080000000    -0.512209   
O146     O      0.892820000000     0.613430000000     0.200970000000    -0.491595   
O147     O      0.890730000000     0.614900000000     0.283010000000    -0.492112   
O148     O      0.885350000000     0.564910000000     0.263410000000    -0.491152   
O149     O      0.942230000000     0.607960000000     0.222920000000    -0.492019   
O150     O      0.899220000000     0.560290000000     0.224810000000    -0.51653    
O151     O      0.903360000000     0.643450000000     0.255550000000    -0.514164   
O152     O      0.941700000000     0.591450000000     0.260720000000    -0.517183   
O153     O      0.071170000000     0.606900000000     0.272780000000    -0.515718   
O154     O      0.074600000000     0.618630000000     0.233390000000    -0.490834   
O155     O      0.126740000000     0.618830000000     0.295260000000    -0.490281   
O156     O      0.120200000000     0.568580000000     0.277790000000    -0.491392   
O157     O      0.125620000000     0.619880000000     0.214970000000    -0.491856   
O158     O      0.104630000000     0.565210000000     0.239700000000    -0.513916   
O159     O      0.118260000000     0.648690000000     0.267650000000    -0.513891   
O160     O      0.154400000000     0.605680000000     0.241390000000    -0.514596   
O161     O      0.283940000000     0.626220000000     0.941160000000    -0.516651   
O162     O      0.244440000000     0.639890000000     0.940310000000    -0.493618   
O163     O      0.302440000000     0.631830000000     0.885730000000    -0.48975    
O164     O      0.280840000000     0.582880000000     0.893960000000    -0.493891   
O165     O      0.219690000000     0.633790000000     0.892200000000    -0.491009   
O166     O      0.244310000000     0.583500000000     0.913910000000    -0.518579   
O167     O      0.275630000000     0.663520000000     0.891520000000    -0.51391    
O168     O      0.246490000000     0.624280000000     0.861960000000    -0.515008   
O169     O      0.248780000000     0.608360000000     0.149240000000    -0.515578   
O170     O      0.221790000000     0.622660000000     0.121060000000    -0.49102    
O171     O      0.304020000000     0.626040000000     0.123950000000    -0.494309   
O172     O      0.284980000000     0.574250000000     0.117280000000    -0.488618   
O173     O      0.243780000000     0.627420000000     0.071120000000    -0.491452   
O174     O      0.248210000000     0.572990000000     0.097630000000    -0.515443   
O175     O      0.275320000000     0.655510000000     0.116420000000    -0.514616   
O176     O      0.283200000000     0.613520000000     0.068680000000    -0.51565    
O177     O      0.279290000000     0.388910000000     0.078180000000    -0.5129     
O178     O      0.237590000000     0.386290000000     0.079860000000    -0.491002   
O179     O      0.298830000000     0.392250000000     0.133900000000    -0.490825   
O180     O      0.284060000000     0.440090000000     0.117720000000    -0.491065   
O181     O      0.217470000000     0.393270000000     0.128830000000    -0.492622   
O182     O      0.247530000000     0.441690000000     0.097850000000    -0.515302   
O183     O      0.269840000000     0.362170000000     0.131210000000    -0.512006   
O184     O      0.243150000000     0.412740000000     0.155020000000    -0.514983   
O185     O      0.242330000000     0.417990000000     0.873670000000    -0.515347   
O186     O      0.214940000000     0.405590000000     0.902270000000    -0.492325   
O187     O      0.296560000000     0.399470000000     0.896820000000    -0.491352   
O188     O      0.282110000000     0.450130000000     0.908060000000    -0.491682   
O189     O      0.236320000000     0.399400000000     0.951440000000    -0.490825   
O190     O      0.245770000000     0.453530000000     0.928080000000    -0.516722   
O191     O      0.267270000000     0.370530000000     0.904420000000    -0.513603   
O192     O      0.277800000000     0.404600000000     0.953070000000    -0.513245   
O193     O      0.860490000000     0.769730000000     0.590370000000    -0.512444   
O194     O      0.890310000000     0.797020000000     0.600920000000    -0.491601   
O195     O      0.887930000000     0.713620000000     0.605250000000    -0.489056   
O196     O      0.895100000000     0.732090000000     0.555270000000    -0.494088   
O197     O      0.937660000000     0.776110000000     0.610780000000    -0.490391   
O198     O      0.915920000000     0.768180000000     0.553490000000    -0.516244   
O199     O      0.887970000000     0.744110000000     0.633500000000    -0.512962   
O200     O      0.941730000000     0.735470000000     0.602280000000    -0.51432    
O201     O      0.071820000000     0.741260000000     0.608730000000    -0.51824    
O202     O      0.070990000000     0.782180000000     0.617360000000    -0.491934   
O203     O      0.129360000000     0.725350000000     0.623670000000    -0.496556   
O204     O      0.118730000000     0.738710000000     0.571240000000    -0.489831   
O205     O      0.122090000000     0.805410000000     0.617120000000    -0.493818   
O206     O      0.101920000000     0.776850000000     0.567540000000    -0.522126   
O207     O      0.115550000000     0.753920000000     0.650640000000    -0.519207   
O208     O      0.151900000000     0.778950000000     0.604510000000    -0.518932   
O209     O      0.939100000000     0.733110000000     0.389430000000    -0.517772   
O210     O      0.938710000000     0.771030000000     0.372080000000    -0.491519   
O211     O      0.884250000000     0.712250000000     0.373250000000    -0.490685   
O212     O      0.886340000000     0.734490000000     0.423420000000    -0.492938   
O213     O      0.889060000000     0.794700000000     0.372070000000    -0.492291   
O214     O      0.904680000000     0.772000000000     0.424240000000    -0.517223   
O215     O      0.896030000000     0.738780000000     0.343480000000    -0.51434    
O216     O      0.857940000000     0.767300000000     0.377720000000    -0.514537   
O217     O      0.152110000000     0.766340000000     0.396720000000    -0.517152   
O218     O      0.123280000000     0.795270000000     0.387590000000    -0.493511   
O219     O      0.119440000000     0.712470000000     0.388180000000    -0.497402   
O220     O      0.122770000000     0.735320000000     0.438240000000    -0.490344   
O221     O      0.071270000000     0.775330000000     0.388380000000    -0.493734   
O222     O      0.106370000000     0.773820000000     0.439230000000    -0.521439   
O223     O      0.111660000000     0.740590000000     0.358580000000    -0.518867   
O224     O      0.068650000000     0.738400000000     0.407560000000    -0.518983   
O225     O      0.068500000000     0.432510000000     0.754460000000    -0.517936   
O226     O      0.069570000000     0.412710000000     0.790690000000    -0.492459   
O227     O      0.117740000000     0.406620000000     0.728020000000    -0.493549   
O228     O      0.122910000000     0.456810000000     0.747790000000    -0.490178   
O229     O      0.120930000000     0.404790000000     0.809140000000    -0.492149   
O230     O      0.112650000000     0.460450000000     0.787630000000    -0.515133   
O231     O      0.106750000000     0.377840000000     0.755850000000    -0.516397   
O232     O      0.150770000000     0.412890000000     0.781270000000    -0.514937   
O233     O      0.855570000000     0.402730000000     0.774350000000    -0.512194   
O234     O      0.886200000000     0.399140000000     0.802260000000    -0.492824   
O235     O      0.886440000000     0.397770000000     0.720310000000    -0.492787   
O236     O      0.882500000000     0.448270000000     0.739960000000    -0.491201   
O237     O      0.935950000000     0.401270000000     0.781820000000    -0.491136   
O238     O      0.895550000000     0.452270000000     0.778910000000    -0.514792   
O239     O      0.897760000000     0.369030000000     0.748060000000    -0.514611   
O240     O      0.937940000000     0.421250000000     0.745720000000    -0.516215   
O241     O      0.949300000000     0.612130000000     0.732350000000    -0.516216   
O242     O      0.944930000000     0.636460000000     0.765480000000    -0.492221   
O243     O      0.898650000000     0.628230000000     0.703050000000    -0.491641   
O244     O      0.894540000000     0.581070000000     0.728790000000    -0.492097   
O245     O      0.895630000000     0.635850000000     0.785730000000    -0.491887   
O246     O      0.908400000000     0.581820000000     0.767620000000    -0.515005   
O247     O      0.902970000000     0.661050000000     0.728190000000    -0.512775   
O248     O      0.865580000000     0.630010000000     0.757540000000    -0.510461   
O249     O      0.157740000000     0.639080000000     0.773290000000    -0.517312   
O250     O      0.127330000000     0.642810000000     0.801480000000    -0.492022   
O251     O      0.127040000000     0.636000000000     0.720210000000    -0.49414    
O252     O      0.135110000000     0.587880000000     0.744070000000    -0.490748   
O253     O      0.077150000000     0.631990000000     0.781350000000    -0.494396   
O254     O      0.125670000000     0.587510000000     0.784280000000    -0.515717   
O255     O      0.111040000000     0.665420000000     0.744900000000    -0.516384   
O256     O      0.078830000000     0.607220000000     0.748230000000    -0.519134   
O257     O      0.242190000000     0.150040000000     0.406130000000    -0.515079   
O258     O      0.213030000000     0.120520000000     0.400450000000    -0.492863   
O259     O      0.294780000000     0.119170000000     0.401220000000    -0.492516   
O260     O      0.275000000000     0.121310000000     0.451900000000    -0.492527   
O261     O      0.231970000000     0.069060000000     0.407760000000    -0.492288   
O262     O      0.234350000000     0.111720000000     0.454540000000    -0.517321   
O263     O      0.267080000000     0.105110000000     0.373470000000    -0.516252   
O264     O      0.270050000000     0.067900000000     0.424780000000    -0.519035   
O265     O      0.278170000000     0.938480000000     0.410250000000    -0.517852   
O266     O      0.239870000000     0.936500000000     0.393940000000    -0.491295   
O267     O      0.302950000000     0.887430000000     0.396090000000    -0.487797   
O268     O      0.277800000000     0.884880000000     0.444650000000    -0.494693   
O269     O      0.220230000000     0.886840000000     0.388640000000    -0.489129   
O270     O      0.238960000000     0.900290000000     0.444500000000    -0.516982   
O271     O      0.275420000000     0.891320000000     0.365260000000    -0.51538    
O272     O      0.246670000000     0.856100000000     0.399050000000    -0.511609   
O273     O      0.244580000000     0.871340000000     0.614870000000    -0.515888   
O274     O      0.216480000000     0.900540000000     0.625080000000    -0.490715   
O275     O      0.298160000000     0.898700000000     0.625690000000    -0.490021   
O276     O      0.279530000000     0.903680000000     0.575090000000    -0.492005   
O277     O      0.237070000000     0.951880000000     0.624910000000    -0.491534   
O278     O      0.240490000000     0.918420000000     0.572420000000    -0.515811   
O279     O      0.270600000000     0.910190000000     0.654600000000    -0.514821   
O280     O      0.276240000000     0.954260000000     0.610640000000    -0.515854   
O281     O      0.271990000000     0.086610000000     0.609230000000    -0.516957   
O282     O      0.233150000000     0.086750000000     0.624430000000    -0.493023   
O283     O      0.294860000000     0.140490000000     0.631700000000    -0.491634   
O284     O      0.274360000000     0.139870000000     0.581440000000    -0.492012   
O285     O      0.214020000000     0.136710000000     0.636230000000    -0.48902    
O286     O      0.233380000000     0.131560000000     0.580360000000    -0.516776   
O287     O      0.269180000000     0.124330000000     0.660110000000    -0.516365   
O288     O      0.240920000000     0.167700000000     0.627930000000    -0.514524   
O289     O      0.068460000000     0.272840000000     0.428110000000    -0.516505   
O290     O      0.071050000000     0.234380000000     0.412230000000    -0.489869   
O291     O      0.119750000000     0.297650000000     0.406460000000    -0.494373   
O292     O      0.122900000000     0.278720000000     0.457660000000    -0.488961   
O293     O      0.121090000000     0.214730000000     0.410020000000    -0.492569   
O294     O      0.106750000000     0.240420000000     0.461930000000    -0.517247   
O295     O      0.111240000000     0.267950000000     0.378720000000    -0.515006   
O296     O      0.151540000000     0.242470000000     0.417310000000    -0.513336   
O297     O      0.854640000000     0.241950000000     0.406010000000    -0.517162   
O298     O      0.884370000000     0.213090000000     0.399930000000    -0.495639   
O299     O      0.886450000000     0.295350000000     0.396530000000    -0.493963   
O300     O      0.882130000000     0.275150000000     0.448520000000    -0.493372   
O301     O      0.936220000000     0.234300000000     0.402630000000    -0.491306   
O302     O      0.899630000000     0.237270000000     0.451960000000    -0.521642   
O303     O      0.897820000000     0.265690000000     0.369600000000    -0.520117   
O304     O      0.936740000000     0.272930000000     0.418520000000    -0.518999   
O305     O      0.935400000000     0.282440000000     0.619960000000    -0.516772   
O306     O      0.934890000000     0.243170000000     0.634040000000    -0.490669   
O307     O      0.878670000000     0.301020000000     0.631420000000    -0.49328    
O308     O      0.887180000000     0.282020000000     0.581160000000    -0.490256   
O309     O      0.885550000000     0.218800000000     0.629480000000    -0.492729   
O310     O      0.905510000000     0.244490000000     0.580440000000    -0.519457   
O311     O      0.889010000000     0.274030000000     0.661320000000    -0.51542    
O312     O      0.854510000000     0.245400000000     0.620720000000    -0.514329   
O313     O      0.146590000000     0.256620000000     0.625620000000    -0.516354   
O314     O      0.117650000000     0.228490000000     0.636490000000    -0.491742   
O315     O      0.120920000000     0.310820000000     0.638290000000    -0.492423   
O316     O      0.110850000000     0.291330000000     0.588460000000    -0.4912     
O317     O      0.067730000000     0.250580000000     0.644380000000    -0.491982   
O318     O      0.093440000000     0.253360000000     0.588570000000    -0.519806   
O319     O      0.114120000000     0.283050000000     0.668480000000    -0.515099   
O320     O      0.064470000000     0.290010000000     0.631010000000    -0.517151   
O321     O      0.738390000000     0.941130000000     0.601740000000    -0.51967    
O322     O      0.775850000000     0.939290000000     0.620010000000    -0.49393    
O323     O      0.715340000000     0.885970000000     0.623120000000    -0.495971   
O324     O      0.733410000000     0.891430000000     0.571200000000    -0.490417   
O325     O      0.796730000000     0.887690000000     0.620620000000    -0.491986   
O326     O      0.774300000000     0.900410000000     0.569480000000    -0.519582   
O327     O      0.743500000000     0.898360000000     0.651110000000    -0.519236   
O328     O      0.768220000000     0.858310000000     0.611690000000    -0.516297   
O329     O      0.766590000000     0.150420000000     0.623190000000    -0.515041   
O330     O      0.796880000000     0.121760000000     0.626150000000    -0.492879   
O331     O      0.715640000000     0.117470000000     0.621600000000    -0.491688   
O332     O      0.736200000000     0.126970000000     0.572680000000    -0.490743   
O333     O      0.781890000000     0.071690000000     0.611110000000    -0.489588   
O334     O      0.777290000000     0.119740000000     0.569520000000    -0.514865   
O335     O      0.741280000000     0.096050000000     0.646380000000    -0.514577   
O336     O      0.745560000000     0.070430000000     0.590690000000    -0.515343   
O337     O      0.736030000000     0.068930000000     0.414800000000    -0.51845    
O338     O      0.770700000000     0.071660000000     0.392000000000    -0.491392   
O339     O      0.706740000000     0.117810000000     0.392840000000    -0.491807   
O340     O      0.730510000000     0.122800000000     0.442040000000    -0.491997   
O341     O      0.790040000000     0.121960000000     0.388660000000    -0.492138   
O342     O      0.770970000000     0.112140000000     0.442450000000    -0.5156     
O343     O      0.734510000000     0.110900000000     0.362800000000    -0.51675    
O344     O      0.761550000000     0.151930000000     0.395410000000    -0.512758   
O345     O      0.769540000000     0.859430000000     0.393690000000    -0.513595   
O346     O      0.799110000000     0.889030000000     0.391450000000    -0.492633   
O347     O      0.715600000000     0.895990000000     0.393080000000    -0.496754   
O348     O      0.736520000000     0.883100000000     0.440710000000    -0.488892   
O349     O      0.780840000000     0.939310000000     0.399420000000    -0.493713   
O350     O      0.777430000000     0.891280000000     0.444350000000    -0.516459   
O351     O      0.744140000000     0.905630000000     0.364530000000    -0.515838   
O352     O      0.747060000000     0.939850000000     0.423620000000    -0.518983   
O353     O      0.421070000000     0.947970000000     0.748180000000    -0.518829   
O354     O      0.400080000000     0.945930000000     0.783760000000    -0.490782   
O355     O      0.393170000000     0.900290000000     0.718420000000    -0.494637   
O356     O      0.443040000000     0.893470000000     0.739700000000    -0.490757   
O357     O      0.388230000000     0.895520000000     0.798970000000    -0.495262   
O358     O      0.444930000000     0.901190000000     0.780200000000    -0.516169   
O359     O      0.364800000000     0.915330000000     0.744820000000    -0.517346   
O360     O      0.394720000000     0.866110000000     0.770300000000    -0.515574   
O361     O      0.401420000000     0.160770000000     0.774800000000    -0.515667   
O362     O      0.394570000000     0.130610000000     0.802650000000    -0.495128   
O363     O      0.393520000000     0.131970000000     0.721880000000    -0.493359   
O364     O      0.445800000000     0.128600000000     0.740890000000    -0.491712   
O365     O      0.396010000000     0.079870000000     0.781880000000    -0.490561   
O366     O      0.447480000000     0.119210000000     0.781070000000    -0.516692   
O367     O      0.365310000000     0.116500000000     0.748270000000    -0.518534   
O368     O      0.416380000000     0.078320000000     0.745890000000    -0.519331   
O369     O      0.625340000000     0.858650000000     0.773120000000    -0.509613   
O370     O      0.626250000000     0.889030000000     0.801470000000    -0.491263   
O371     O      0.623270000000     0.889940000000     0.719010000000    -0.492587   
O372     O      0.575230000000     0.882770000000     0.740740000000    -0.490517   
O373     O      0.621500000000     0.938510000000     0.780730000000    -0.493494   
O374     O      0.572880000000     0.891710000000     0.780940000000    -0.514002   
O375     O      0.653130000000     0.903010000000     0.744800000000    -0.514307   
O376     O      0.597020000000     0.939420000000     0.747440000000    -0.513648   
O377     O      0.595030000000     0.071820000000     0.750500000000    -0.511959   
O378     O      0.619010000000     0.071940000000     0.784190000000    -0.492643   
O379     O      0.627030000000     0.122420000000     0.721340000000    -0.492711   
O380     O      0.578160000000     0.128000000000     0.741450000000    -0.489915   
O381     O      0.631230000000     0.119960000000     0.802090000000    -0.489734   
O382     O      0.576560000000     0.123540000000     0.782370000000    -0.513639   
O383     O      0.653460000000     0.099890000000     0.744210000000    -0.513039   
O384     O      0.631990000000     0.149960000000     0.773420000000    -0.511162   


