data_structure

_audit_creation_method RASPA-1.0
_audit_creation_date 2023-5-22
_audit_author_name 'Poobodin Mano'

_cell_length_a    27.0395
_cell_length_b    26.9416
_cell_length_c    33.34
_cell_angle_alpha 89.8656
_cell_angle_beta  90.3885
_cell_angle_gamma 90.1678
_cell_volume      24287

_symmetry_cell_setting          triclinic
_symmetry_space_group_name_Hall 'P 1'
_symmetry_space_group_name_H-M  'P 1'
_symmetry_Int_Tables_number     1

_symmetry_equiv_pos_as_xyz 'x,y,z'

loop_
_atom_site_label
_atom_site_type_symbol
_atom_site_fract_x
_atom_site_fract_y
_atom_site_fract_z
_atom_site_charge
C1       C      0.033800000000     0.188320000000     0.988150000000     0.402879   
C2       C      0.908860000000     0.308880000000     0.445720000000     0.398741   
C3       C      0.905220000000     0.225290000000     0.047240000000     0.403625   
C4       C      0.028070000000     0.348360000000     0.014610000000     0.401907   
C5       C      0.038720000000     0.181020000000     0.249530000000     0.402025   
C6       C      0.924440000000     0.319740000000     0.218440000000     0.402061   
C7       C      0.912080000000     0.221060000000     0.306230000000     0.404182   
C8       C      0.056410000000     0.327300000000     0.283400000000     0.401129   
C9       C      0.668500000000     0.558380000000     0.111640000000     0.403025   
C10      C      0.810410000000     0.447570000000     0.132150000000     0.401971   
C11      C      0.700230000000     0.434460000000     0.043790000000     0.403027   
C12      C      0.813910000000     0.570890000000     0.070670000000     0.403266   
C13      C      0.665310000000     0.543500000000     0.318490000000     0.401479   
C14      C      0.806660000000     0.440060000000     0.355870000000     0.403953   
C15      C      0.715410000000     0.418280000000     0.257320000000     0.401418   
C16      C      0.812920000000     0.566250000000     0.293630000000     0.404604   
C17      C      0.842910000000     0.000930000000     0.229210000000     0.404781   
C18      C      0.713310000000     0.120290000000     0.256400000000     0.405973   
C19      C      0.805640000000     0.110790000000     0.155350000000     0.402957   
C20      C      0.691110000000     0.983000000000     0.199150000000     0.402201   
C21      C      0.838980000000     0.002990000000     0.478860000000     0.405473   
C22      C      0.699390000000     0.110440000000     0.993300000000     0.403444   
C23      C      0.800800000000     0.105070000000     0.403210000000     0.403803   
C24      C      0.691370000000     0.968460000000     0.436040000000     0.402498   
C25      C      0.458040000000     0.351300000000     0.109560000000     0.403917   
C26      C      0.568020000000     0.211450000000     0.083120000000     0.400106   
C27      C      0.581510000000     0.316290000000     0.171290000000     0.40376    
C28      C      0.442620000000     0.201810000000     0.150270000000     0.401617   
C29      C      0.466550000000     0.348720000000     0.389360000000     0.401452   
C30      C      0.582760000000     0.215180000000     0.352450000000     0.404097   
C31      C      0.597540000000     0.308090000000     0.448310000000     0.402867   
C32      C      0.457910000000     0.198500000000     0.417950000000     0.403064   
C33      C      0.316060000000     0.487880000000     0.076670000000     0.401758   
C34      C      0.198590000000     0.618800000000     0.109170000000     0.404587   
C35      C      0.289350000000     0.622730000000     0.015490000000     0.405031   
C36      C      0.170660000000     0.488160000000     0.044480000000     0.401529   
C37      C      0.181180000000     0.478830000000     0.322790000000     0.402113   
C38      C      0.289610000000     0.618760000000     0.299180000000     0.404449   
C39      C      0.193440000000     0.604910000000     0.389950000000     0.40073    
C40      C      0.334710000000     0.497030000000     0.363300000000     0.403376   
C41      C      0.536080000000     0.859880000000     0.186300000000     0.402291   
C42      C      0.424290000000     0.721700000000     0.216540000000     0.405956   
C43      C      0.410340000000     0.816010000000     0.123760000000     0.405471   
C44      C      0.554880000000     0.713700000000     0.150200000000     0.402834   
C45      C      0.576030000000     0.811230000000     0.400950000000     0.402749   
C46      C      0.421150000000     0.722910000000     0.423620000000     0.403735   
C47      C      0.444420000000     0.834090000000     0.338920000000     0.401575   
C48      C      0.525450000000     0.673420000000     0.351820000000     0.404567   
C49      C      0.297740000000     0.070210000000     0.188540000000     0.402559   
C50      C      0.216530000000     0.912890000000     0.161240000000     0.404535   
C51      C      0.308540000000     0.936230000000     0.253330000000     0.404582   
C52      C      0.155120000000     0.026570000000     0.225810000000     0.404524   
C53      C      0.183200000000     0.052350000000     0.472590000000     0.402196   
C54      C      0.304260000000     0.927750000000     0.017190000000     0.401324   
C55      C      0.215720000000     0.915860000000     0.416260000000     0.404084   
C56      C      0.337140000000     0.042870000000     0.445330000000     0.403012   
C57      C      0.965620000000     0.859760000000     0.010130000000     0.404718   
C58      C      0.063040000000     0.711180000000     0.476710000000     0.403135   
C59      C      0.088350000000     0.815290000000     0.069160000000     0.402013   
C60      C      0.936540000000     0.721790000000     0.042640000000     0.40434    
C61      C      0.961770000000     0.843870000000     0.252530000000     0.40373    
C62      C      0.085620000000     0.722640000000     0.215200000000     0.399142   
C63      C      0.090630000000     0.815010000000     0.316830000000     0.402521   
C64      C      0.968290000000     0.689210000000     0.281210000000     0.402756   
C65      C      0.155040000000     0.878890000000     0.326060000000    -0.0084531  
C66      C      0.113790000000     0.838760000000     0.385960000000    -0.0130084  
C67      C      0.204130000000     0.878800000000     0.349010000000    -0.0122816  
C68      C      0.163110000000     0.840840000000     0.408760000000    -0.00887934 
C69      C      0.154500000000     0.877630000000     0.075020000000    -0.00904382 
C70      C      0.122360000000     0.831950000000     0.136510000000    -0.0127217  
C71      C      0.206160000000     0.876680000000     0.093600000000    -0.0126048  
C72      C      0.174860000000     0.831690000000     0.153620000000    -0.0083353  
C73      C      0.336060000000     0.904360000000     0.319430000000    -0.0126098  
C74      C      0.375880000000     0.874870000000     0.255250000000    -0.0090684  
C75      C      0.387250000000     0.905840000000     0.339430000000    -0.00899563 
C76      C      0.426400000000     0.878320000000     0.275540000000    -0.00784377 
C77      C      0.363300000000     0.860030000000     0.029890000000    -0.0116772  
C78      C      0.338870000000     0.918350000000     0.085560000000    -0.0141552  
C79      C      0.363460000000     0.817110000000     0.059850000000    -0.00896781 
C80      C      0.341000000000     0.875000000000     0.115400000000    -0.00718946 
C81      C      0.107330000000     0.631560000000     0.469850000000    -0.0109493  
C82      C      0.086890000000     0.682450000000     0.409070000000    -0.01324    
C83      C      0.161050000000     0.627470000000     0.456450000000    -0.00728941 
C84      C      0.140480000000     0.679140000000     0.395160000000    -0.00814143 
C85      C      0.315140000000     0.648990000000     0.232560000000    -0.0107245  
C86      C      0.333350000000     0.699520000000     0.293760000000    -0.0116302  
C87      C      0.369940000000     0.648430000000     0.222120000000    -0.00970908 
C88      C      0.388230000000     0.701680000000     0.282770000000    -0.00338393 
C89      C      0.153250000000     0.663320000000     0.203860000000    -0.0113599  
C90      C      0.094330000000     0.686190000000     0.147840000000    -0.0138113  
C91      C      0.195800000000     0.663160000000     0.173940000000    -0.00950258 
C92      C      0.137170000000     0.685670000000     0.118160000000    -0.00682449 
C93      C      0.350200000000     0.665770000000     0.427410000000    -0.00931761 
C94      C      0.393970000000     0.695590000000     0.990560000000    -0.0139319  
C95      C      0.301330000000     0.665240000000     0.450230000000    -0.00924793 
C96      C      0.344020000000     0.696340000000     0.011570000000    -0.00705864 
C97      C      0.422680000000     0.403470000000     0.341870000000    -0.0113478  
C98      C      0.403000000000     0.404830000000     0.416310000000    -0.0104272  
C99      C      0.412810000000     0.459250000000     0.340200000000    -0.0100689  
C100     C      0.392900000000     0.460690000000     0.413120000000    -0.0126616  
C101     C      0.410040000000     0.090230000000     0.469300000000    -0.00995932 
C102     C      0.390350000000     0.085560000000     0.395890000000    -0.0114761  
C103     C      0.412740000000     0.146830000000     0.466980000000    -0.0117514  
C104     C      0.392330000000     0.142230000000     0.392970000000    -0.0106241  
C105     C      0.414200000000     0.425850000000     0.133280000000    -0.00977023 
C106     C      0.427240000000     0.412600000000     0.059860000000    -0.0119424  
C107     C      0.359310000000     0.435390000000     0.126140000000    -0.011023   
C108     C      0.372490000000     0.423300000000     0.051610000000    -0.0101595  
C109     C      0.332330000000     0.125990000000     0.136730000000    -0.0117167  
C110     C      0.344900000000     0.144800000000     0.209700000000    -0.011028   
C111     C      0.387540000000     0.133310000000     0.129330000000    -0.0100295  
C112     C      0.400330000000     0.152760000000     0.202740000000    -0.0113581  
C113     C      0.930770000000     0.918870000000     0.461600000000    -0.00988737 
C114     C      0.904810000000     0.919040000000     0.035440000000    -0.00946027 
C115     C      0.922840000000     0.974780000000     0.461590000000    -0.00869401 
C116     C      0.895350000000     0.973740000000     0.532480000000    -0.0111299  
C117     C      0.628850000000     0.849900000000     0.453460000000    -0.0112864  
C118     C      0.649290000000     0.860260000000     0.380930000000    -0.0109482  
C119     C      0.630370000000     0.906300000000     0.459220000000    -0.0111594  
C120     C      0.648880000000     0.916740000000     0.385340000000    -0.0112712  
C121     C      0.682630000000     0.154700000000     0.056460000000    -0.0104043  
C122     C      0.634260000000     0.174860000000     0.993880000000    -0.00935757 
C123     C      0.634700000000     0.149410000000     0.079840000000    -0.0103472  
C124     C      0.586130000000     0.172160000000     0.017780000000    -0.0111337  
C125     C      0.919280000000     0.959200000000     0.206790000000    -0.00895925 
C126     C      0.894550000000     0.955960000000     0.278820000000    -0.0111356  
C127     C      0.922340000000     0.902590000000     0.205210000000    -0.0120175  
C128     C      0.896460000000     0.899150000000     0.278080000000    -0.0109709  
C129     C      0.629410000000     0.941400000000     0.155630000000    -0.0113316  
C130     C      0.643480000000     0.912580000000     0.227030000000    -0.0107379  
C131     C      0.573660000000     0.938220000000     0.162370000000    -0.00986757 
C132     C      0.587450000000     0.909670000000     0.233010000000    -0.012074   
C133     C      0.695750000000     0.153680000000     0.323910000000    -0.0128878  
C134     C      0.654530000000     0.190210000000     0.263070000000    -0.00955675 
C135     C      0.645670000000     0.149610000000     0.344700000000    -0.00950895 
C136     C      0.604350000000     0.187370000000     0.284000000000    -0.0123994  
C137     C      0.607030000000     0.577930000000     0.366970000000    -0.0105208  
C138     C      0.606540000000     0.606000000000     0.293440000000    -0.00954063 
C139     C      0.551640000000     0.587960000000     0.367920000000    -0.00850736 
C140     C      0.551180000000     0.617020000000     0.297260000000    -0.0120812  
C141     C      0.925370000000     0.615390000000     0.253920000000    -0.00978667 
C142     C      0.917330000000     0.637670000000     0.326580000000    -0.0112308  
C143     C      0.869140000000     0.613500000000     0.249360000000    -0.0111569  
C144     C      0.860890000000     0.636150000000     0.322350000000    -0.010508   
C145     C      0.696530000000     0.386040000000     0.189430000000    -0.00738758 
C146     C      0.675000000000     0.336290000000     0.249870000000    -0.0102645  
C147     C      0.642850000000     0.384000000000     0.174810000000    -0.0110973  
C148     C      0.620770000000     0.333880000000     0.236760000000    -0.0106302  
C149     C      0.602770000000     0.669520000000     0.098540000000    -0.0107998  
C150     C      0.618530000000     0.653230000000     0.172020000000    -0.00998729 
C151     C      0.600060000000     0.613690000000     0.091220000000    -0.00982985 
C152     C      0.616930000000     0.597160000000     0.164090000000    -0.0128205  
C153     C      0.884080000000     0.622150000000     0.093800000000    -0.00934416 
C154     C      0.858760000000     0.621400000000     0.020740000000    -0.00948902 
C155     C      0.885490000000     0.678650000000     0.093010000000    -0.0103125  
C156     C      0.860720000000     0.678130000000     0.020400000000    -0.00902602 
C157     C      0.637220000000     0.317930000000     0.015400000000    -0.00974891 
C158     C      0.674070000000     0.358120000000     0.454680000000    -0.009348   
C159     C      0.638440000000     0.367370000000     0.037870000000    -0.00996474 
C160     C      0.673780000000     0.408640000000     0.475300000000    -0.0111165  
C161     C      0.113350000000     0.423060000000     0.343670000000    -0.0100182  
C162     C      0.130310000000     0.437920000000     0.270470000000    -0.0114392  
C163     C      0.107830000000     0.367510000000     0.335680000000    -0.011881   
C164     C      0.125090000000     0.382220000000     0.262540000000    -0.0108251  
C165     C      0.074560000000     0.120690000000     0.202450000000    -0.010909   
C166     C      0.095700000000     0.118270000000     0.277120000000    -0.0103406  
C167     C      0.076680000000     0.063940000000     0.202190000000    -0.0096858  
C168     C      0.096860000000     0.061600000000     0.274950000000    -0.0109354  
C169     C      0.866310000000     0.215270000000     0.369750000000    -0.0128783  
C170     C      0.839840000000     0.164670000000     0.310220000000    -0.00393265 
C171     C      0.864700000000     0.169320000000     0.396240000000    -0.00760774 
C172     C      0.837930000000     0.118270000000     0.336610000000    -0.0140589  
C173     C      0.885180000000     0.394960000000     0.133190000000    -0.00907683 
C174     C      0.851300000000     0.429330000000     0.197040000000    -0.00949209 
C175     C      0.889670000000     0.343700000000     0.152500000000    -0.0120291  
C176     C      0.854420000000     0.378220000000     0.216620000000    -0.00934547 
C177     C      0.071520000000     0.422900000000     0.989050000000    -0.0112228  
C178     C      0.061450000000     0.409760000000     0.062890000000    -0.0115083  
C179     C      0.126100000000     0.436260000000     0.995140000000    -0.0131303  
C180     C      0.116160000000     0.421800000000     0.069750000000    -0.0105003  
C181     C      0.134440000000     0.106100000000     0.016940000000    -0.0113031  
C182     C      0.129440000000     0.115930000000     0.441830000000    -0.0108203  
C183     C      0.079180000000     0.118100000000     0.018930000000    -0.00977171 
C184     C      0.073910000000     0.126380000000     0.444490000000    -0.0116528  
C185     C      0.868560000000     0.219240000000     0.114630000000    -0.010959   
C186     C      0.833640000000     0.168970000000     0.057870000000    -0.00715744 
C187     C      0.869580000000     0.173400000000     0.141390000000    -0.00927177 
C188     C      0.831990000000     0.123010000000     0.085100000000    -0.0129605  
C189     C      0.886330000000     0.397910000000     0.368940000000    -0.00884363 
C190     C      0.822690000000     0.404680000000     0.423270000000    -0.0100112  
C191     C      0.891920000000     0.342550000000     0.377810000000    -0.0123194  
C192     C      0.828390000000     0.349320000000     0.432260000000    -0.0111952  
C193     C      0.033090000000     0.187700000000     0.488380000000     0.404755   
C194     C      0.909070000000     0.308950000000     0.945350000000     0.398999   
C195     C      0.905080000000     0.225200000000     0.547650000000     0.403884   
C196     C      0.028210000000     0.347960000000     0.514730000000     0.400293   
C197     C      0.038560000000     0.181450000000     0.749290000000     0.401974   
C198     C      0.924090000000     0.319950000000     0.718080000000     0.402053   
C199     C      0.911810000000     0.221230000000     0.805980000000     0.404038   
C200     C      0.055920000000     0.327710000000     0.783270000000     0.40131    
C201     C      0.668590000000     0.559080000000     0.611050000000     0.402946   
C202     C      0.809710000000     0.447350000000     0.631510000000     0.401856   
C203     C      0.699140000000     0.434980000000     0.543100000000     0.403096   
C204     C      0.814130000000     0.570250000000     0.569920000000     0.403165   
C205     C      0.665520000000     0.543660000000     0.818290000000     0.401303   
C206     C      0.806900000000     0.440150000000     0.855560000000     0.404082   
C207     C      0.715450000000     0.418260000000     0.757200000000     0.401504   
C208     C      0.813050000000     0.566260000000     0.793360000000     0.404427   
C209     C      0.842470000000     0.000650000000     0.729390000000     0.404848   
C210     C      0.713140000000     0.120350000000     0.756740000000     0.406074   
C211     C      0.805510000000     0.110620000000     0.655710000000     0.403005   
C212     C      0.690650000000     0.983090000000     0.699510000000     0.402311   
C213     C      0.838890000000     0.003110000000     0.978660000000     0.403802   
C214     C      0.699460000000     0.110290000000     0.493380000000     0.406511   
C215     C      0.800750000000     0.105160000000     0.903070000000     0.403723   
C216     C      0.691150000000     0.968720000000     0.936000000000     0.40263    
C217     C      0.458130000000     0.351310000000     0.609420000000     0.403849   
C218     C      0.568000000000     0.211340000000     0.583050000000     0.399974   
C219     C      0.581590000000     0.316210000000     0.671150000000     0.403741   
C220     C      0.442590000000     0.201850000000     0.650170000000     0.401531   
C221     C      0.466180000000     0.348750000000     0.889740000000     0.401213   
C222     C      0.582760000000     0.215500000000     0.852810000000     0.404105   
C223     C      0.597300000000     0.308390000000     0.948700000000     0.403048   
C224     C      0.457980000000     0.198440000000     0.918180000000     0.403063   
C225     C      0.316100000000     0.487810000000     0.576560000000     0.40178    
C226     C      0.198650000000     0.618790000000     0.609030000000     0.404429   
C227     C      0.289400000000     0.622750000000     0.515470000000     0.403864   
C228     C      0.170750000000     0.488020000000     0.544420000000     0.401549   
C229     C      0.180650000000     0.479140000000     0.822990000000     0.402423   
C230     C      0.289320000000     0.618850000000     0.799560000000     0.404763   
C231     C      0.193140000000     0.605100000000     0.890370000000     0.400556   
C232     C      0.334190000000     0.497010000000     0.863690000000     0.403569   
C233     C      0.535580000000     0.860100000000     0.686780000000     0.402258   
C234     C      0.423970000000     0.721820000000     0.716850000000     0.40598    
C235     C      0.409930000000     0.816160000000     0.624080000000     0.405705   
C236     C      0.554670000000     0.714130000000     0.650300000000     0.40297    
C237     C      0.575820000000     0.811490000000     0.900960000000     0.402874   
C238     C      0.421420000000     0.722380000000     0.923680000000     0.403687   
C239     C      0.444000000000     0.834060000000     0.839030000000     0.401443   
C240     C      0.525680000000     0.673700000000     0.851760000000     0.404703   
C241     C      0.297620000000     0.070340000000     0.688480000000     0.402963   
C242     C      0.216230000000     0.913180000000     0.661130000000     0.404593   
C243     C      0.308230000000     0.936370000000     0.753340000000     0.404662   
C244     C      0.154950000000     0.026920000000     0.725730000000     0.404696   
C245     C      0.184110000000     0.053060000000     0.972410000000     0.400715   
C246     C      0.304120000000     0.927920000000     0.517410000000     0.399932   
C247     C      0.215570000000     0.916130000000     0.916120000000     0.403806   
C248     C      0.337740000000     0.042480000000     0.945230000000     0.40316    
C249     C      0.964890000000     0.858980000000     0.509780000000     0.403247   
C250     C      0.062670000000     0.711260000000     0.977090000000     0.401484   
C251     C      0.088220000000     0.815460000000     0.568870000000     0.401848   
C252     C      0.937080000000     0.720940000000     0.542130000000     0.404095   
C253     C      0.961500000000     0.843600000000     0.752460000000     0.403723   
C254     C      0.085700000000     0.722740000000     0.715030000000     0.399252   
C255     C      0.090460000000     0.815120000000     0.816700000000     0.402293   
C256     C      0.968490000000     0.688990000000     0.781030000000     0.402666   
C257     C      0.154660000000     0.879190000000     0.825940000000    -0.00839066 
C258     C      0.113480000000     0.839000000000     0.885830000000    -0.013042   
C259     C      0.203760000000     0.879160000000     0.848870000000    -0.0123697  
C260     C      0.162780000000     0.841230000000     0.908660000000    -0.00883079 
C261     C      0.154190000000     0.877980000000     0.574830000000    -0.00904528 
C262     C      0.122050000000     0.832210000000     0.636260000000    -0.0126859  
C263     C      0.205840000000     0.877090000000     0.593450000000    -0.0125857  
C264     C      0.174530000000     0.832000000000     0.653420000000    -0.00831966 
C265     C      0.335550000000     0.904340000000     0.819440000000    -0.012578   
C266     C      0.375600000000     0.875070000000     0.755300000000    -0.00903691 
C267     C      0.386670000000     0.905680000000     0.839590000000    -0.0090554  
C268     C      0.426040000000     0.878440000000     0.775710000000    -0.0077687  
C269     C      0.363080000000     0.860150000000     0.530180000000    -0.0118148  
C270     C      0.338720000000     0.918590000000     0.585790000000    -0.0142054  
C271     C      0.363060000000     0.817260000000     0.560180000000    -0.00890938 
C272     C      0.340690000000     0.875270000000     0.615660000000    -0.0071391  
C273     C      0.107010000000     0.631660000000     0.970250000000    -0.0128423  
C274     C      0.086610000000     0.682590000000     0.909470000000    -0.0132857  
C275     C      0.160760000000     0.627640000000     0.956880000000    -0.00655457 
C276     C      0.140240000000     0.679380000000     0.895640000000    -0.00811496 
C277     C      0.314820000000     0.649100000000     0.732940000000    -0.0106695  
C278     C      0.333150000000     0.699560000000     0.794160000000    -0.0116869  
C279     C      0.369600000000     0.648560000000     0.722420000000    -0.00976137 
C280     C      0.388010000000     0.701720000000     0.783100000000    -0.00331186 
C281     C      0.153370000000     0.663460000000     0.703690000000    -0.0113148  
C282     C      0.094450000000     0.686320000000     0.647660000000    -0.0139904  
C283     C      0.195910000000     0.663240000000     0.673760000000    -0.00950065 
C284     C      0.137290000000     0.685730000000     0.617990000000    -0.00667611 
C285     C      0.350900000000     0.664560000000     0.927520000000    -0.00968837 
C286     C      0.393720000000     0.696130000000     0.490410000000    -0.0104207  
C287     C      0.301840000000     0.664650000000     0.950060000000    -0.00875783 
C288     C      0.343970000000     0.696430000000     0.511750000000    -0.00993736 
C289     C      0.422220000000     0.403450000000     0.842250000000    -0.0115038  
C290     C      0.402450000000     0.404670000000     0.916670000000    -0.0103276  
C291     C      0.412300000000     0.459210000000     0.840620000000    -0.00999608 
C292     C      0.392280000000     0.460530000000     0.913530000000    -0.0127135  
C293     C      0.410700000000     0.089710000000     0.969240000000    -0.00993516 
C294     C      0.390970000000     0.085240000000     0.895850000000    -0.0113924  
C295     C      0.413110000000     0.146330000000     0.967090000000    -0.0117388  
C296     C      0.392680000000     0.141930000000     0.893060000000    -0.0106536  
C297     C      0.414330000000     0.425910000000     0.633120000000    -0.00982682 
C298     C      0.427300000000     0.412570000000     0.559710000000    -0.0118677  
C299     C      0.359430000000     0.435390000000     0.626020000000    -0.0109416  
C300     C      0.372530000000     0.423230000000     0.551490000000    -0.0101859  
C301     C      0.332270000000     0.126060000000     0.636660000000    -0.0116057  
C302     C      0.344830000000     0.144910000000     0.709620000000    -0.0110045  
C303     C      0.387480000000     0.133360000000     0.629250000000    -0.0101399  
C304     C      0.400270000000     0.152840000000     0.702660000000    -0.0113679  
C305     C      0.931490000000     0.919310000000     0.961820000000    -0.0106069  
C306     C      0.903400000000     0.917730000000     0.535060000000    -0.00943791 
C307     C      0.922780000000     0.975100000000     0.961250000000    -0.00865172 
C308     C      0.895790000000     0.974850000000     0.032280000000    -0.0101484  
C309     C      0.628640000000     0.850180000000     0.953450000000    -0.0112918  
C310     C      0.649000000000     0.860620000000     0.880900000000    -0.0109742  
C311     C      0.630150000000     0.906580000000     0.959230000000    -0.011102   
C312     C      0.648510000000     0.917080000000     0.885330000000    -0.0112519  
C313     C      0.682580000000     0.154460000000     0.556550000000    -0.010186   
C314     C      0.634430000000     0.174830000000     0.493910000000    -0.00713459 
C315     C      0.634550000000     0.149180000000     0.579830000000    -0.010489   
C316     C      0.586220000000     0.172130000000     0.517700000000    -0.0125138  
C317     C      0.918750000000     0.958890000000     0.706850000000    -0.00892557 
C318     C      0.894120000000     0.955510000000     0.778900000000    -0.0111161  
C319     C      0.921860000000     0.902280000000     0.705210000000    -0.0119898  
C320     C      0.896080000000     0.898700000000     0.778090000000    -0.0109941  
C321     C      0.628670000000     0.941760000000     0.656080000000    -0.011368   
C322     C      0.643090000000     0.912610000000     0.727360000000    -0.0107121  
C323     C      0.572950000000     0.938610000000     0.663020000000    -0.00984528 
C324     C      0.587080000000     0.909710000000     0.733520000000    -0.012104   
C325     C      0.695730000000     0.153840000000     0.824240000000    -0.012872   
C326     C      0.654520000000     0.190410000000     0.763410000000    -0.00965192 
C327     C      0.645660000000     0.149920000000     0.845080000000    -0.00951062 
C328     C      0.604350000000     0.187680000000     0.784370000000    -0.0123586  
C329     C      0.607390000000     0.578230000000     0.866830000000    -0.010596   
C330     C      0.606830000000     0.606280000000     0.793300000000    -0.00955163 
C331     C      0.552020000000     0.588260000000     0.867810000000    -0.00841667 
C332     C      0.551490000000     0.617370000000     0.797160000000    -0.0120918  
C333     C      0.925600000000     0.615160000000     0.753720000000    -0.00979838 
C334     C      0.917540000000     0.637410000000     0.826390000000    -0.0113023  
C335     C      0.869380000000     0.613420000000     0.749120000000    -0.0111124  
C336     C      0.861110000000     0.636070000000     0.822110000000    -0.0104144  
C337     C      0.696740000000     0.385770000000     0.689350000000    -0.00763381 
C338     C      0.674940000000     0.336300000000     0.749860000000    -0.0102578  
C339     C      0.643110000000     0.383740000000     0.674590000000    -0.0110674  
C340     C      0.620750000000     0.333910000000     0.736640000000    -0.0106151  
C341     C      0.603060000000     0.670740000000     0.598530000000    -0.0108313  
C342     C      0.618320000000     0.653560000000     0.671930000000    -0.00989978 
C343     C      0.600590000000     0.614990000000     0.590710000000    -0.00987685 
C344     C      0.616910000000     0.597600000000     0.663560000000    -0.0128655  
C345     C      0.884800000000     0.620830000000     0.593000000000    -0.00919897 
C346     C      0.859390000000     0.620390000000     0.519990000000    -0.0107506  
C347     C      0.886270000000     0.677330000000     0.592390000000    -0.0103563  
C348     C      0.861410000000     0.677120000000     0.519770000000    -0.0100956  
C349     C      0.637100000000     0.318270000000     0.515100000000    -0.0106423  
C350     C      0.674050000000     0.358100000000     0.954970000000    -0.00943251 
C351     C      0.637070000000     0.368020000000     0.537130000000    -0.00988566 
C352     C      0.674780000000     0.408300000000     0.976060000000    -0.0117688  
C353     C      0.112700000000     0.423420000000     0.843720000000    -0.00994023 
C354     C      0.129810000000     0.438420000000     0.770560000000    -0.0115047  
C355     C      0.107180000000     0.367890000000     0.835660000000    -0.0119578  
C356     C      0.124590000000     0.382730000000     0.762550000000    -0.0107414  
C357     C      0.074500000000     0.121110000000     0.702270000000    -0.0108931  
C358     C      0.095650000000     0.118820000000     0.776920000000    -0.0102544  
C359     C      0.076560000000     0.064360000000     0.702070000000    -0.00972722 
C360     C      0.096750000000     0.062140000000     0.774830000000    -0.0109124  
C361     C      0.866100000000     0.215380000000     0.869530000000    -0.012879   
C362     C      0.839760000000     0.164610000000     0.810040000000    -0.00403179 
C363     C      0.864580000000     0.169480000000     0.896060000000    -0.00758932 
C364     C      0.837970000000     0.118250000000     0.836500000000    -0.014011   
C365     C      0.884410000000     0.394640000000     0.632560000000    -0.00908959 
C366     C      0.850860000000     0.429450000000     0.696360000000    -0.00957578 
C367     C      0.889140000000     0.343550000000     0.652130000000    -0.0120408  
C368     C      0.854130000000     0.378500000000     0.716180000000    -0.00923029 
C369     C      0.071910000000     0.422250000000     0.488970000000    -0.0105848  
C370     C      0.061550000000     0.409580000000     0.562850000000    -0.0117128  
C371     C      0.126440000000     0.435760000000     0.495170000000    -0.0122565  
C372     C      0.116210000000     0.421740000000     0.569800000000    -0.0105422  
C373     C      0.133170000000     0.104960000000     0.517100000000    -0.0119701  
C374     C      0.130970000000     0.117230000000     0.941650000000    -0.0109781  
C375     C      0.077950000000     0.117150000000     0.519220000000    -0.0105187  
C376     C      0.075410000000     0.127560000000     0.944230000000    -0.011673   
C377     C      0.868820000000     0.218880000000     0.615180000000    -0.0111115  
C378     C      0.833380000000     0.169050000000     0.558360000000    -0.00717641 
C379     C      0.869820000000     0.172870000000     0.641750000000    -0.00917328 
C380     C      0.831740000000     0.122950000000     0.585430000000    -0.0129856  
C381     C      0.886600000000     0.398030000000     0.868590000000    -0.008859   
C382     C      0.823000000000     0.404760000000     0.922950000000    -0.00999256 
C383     C      0.892200000000     0.342660000000     0.877440000000    -0.0122895  
C384     C      0.828610000000     0.349380000000     0.931860000000    -0.0111808  
H1       H      0.091320000000     0.871300000000     0.395040000000     0.0450007  
H2       H      0.137700000000     0.916020000000     0.329390000000     0.0443621  
H3       H      0.226760000000     0.910690000000     0.338560000000     0.0572496  
H4       H      0.093360000000     0.804860000000     0.395260000000     0.0555362  
H5       H      0.155900000000     0.845640000000     0.441310000000     0.0498085  
H6       H      0.182040000000     0.804620000000     0.404820000000     0.0378907  
H7       H      0.162720000000     0.873210000000     0.293650000000     0.0510658  
H8       H      0.224150000000     0.843990000000     0.341750000000     0.0404775  
H9       H      0.101900000000     0.863420000000     0.150050000000     0.0481441  
H10      H      0.137600000000     0.914380000000     0.081210000000     0.0454527  
H11      H      0.227100000000     0.909690000000     0.083220000000     0.0573706  
H12      H      0.103390000000     0.797210000000     0.145590000000     0.0571693  
H13      H      0.173450000000     0.831590000000     0.186940000000     0.0491056  
H14      H      0.193380000000     0.796960000000     0.143990000000     0.0367429  
H15      H      0.157970000000     0.873930000000     0.041940000000     0.0503531  
H16      H      0.225360000000     0.842850000000     0.082770000000     0.0385649  
H17      H      0.362530000000     0.835880000000     0.257600000000     0.043626   
H18      H      0.318040000000     0.868520000000     0.327270000000     0.0413067  
H19      H      0.383430000000     0.897320000000     0.371910000000     0.0503738  
H20      H      0.380080000000     0.883730000000     0.222890000000     0.0540915  
H21      H      0.451680000000     0.850810000000     0.262020000000     0.0594698  
H22      H      0.441870000000     0.915940000000     0.269740000000     0.0392099  
H23      H      0.313320000000     0.934900000000     0.331900000000     0.0587742  
H24      H      0.402170000000     0.944200000000     0.336570000000     0.0406891  
H25      H      0.374700000000     0.938640000000     0.087280000000     0.044204   
H26      H      0.401790000000     0.874070000000     0.026740000000     0.0466615  
H27      H      0.390740000000     0.788930000000     0.050180000000     0.0478616  
H28      H      0.309640000000     0.944720000000     0.094760000000     0.0634173  
H29      H      0.352920000000     0.889330000000     0.145180000000     0.0534978  
H30      H      0.303320000000     0.859370000000     0.118830000000     0.0423881  
H31      H      0.350870000000     0.845760000000     0.500470000000     0.0493166  
H32      H      0.326160000000     0.799590000000     0.059450000000     0.0363226  
H33      H      0.065700000000     0.651620000000     0.394910000000     0.0442741  
H34      H      0.086760000000     0.598680000000     0.458340000000     0.0400929  
H35      H      0.175040000000     0.590480000000     0.465710000000     0.0613763  
H36      H      0.070500000000     0.717940000000     0.398530000000     0.0598688  
H37      H      0.141150000000     0.679100000000     0.361820000000     0.0513073  
H38      H      0.160360000000     0.712970000000     0.405540000000     0.0384048  
H39      H      0.105690000000     0.630560000000     0.003560000000     0.052441   
H40      H      0.183160000000     0.656490000000     0.472110000000     0.0436652  
H41      H      0.315100000000     0.733020000000     0.280980000000     0.0391201  
H42      H      0.297650000000     0.681150000000     0.217110000000     0.0393762  
H43      H      0.373660000000     0.646350000000     0.188980000000     0.0518204  
H44      H      0.329380000000     0.701030000000     0.326860000000     0.0505689  
H45      H      0.403560000000     0.738190000000     0.292060000000     0.050573   
H46      H      0.407990000000     0.672370000000     0.300030000000     0.0449966  
H47      H      0.297530000000     0.614350000000     0.221310000000     0.0535462  
H48      H      0.386730000000     0.614350000000     0.235190000000     0.042518   
H49      H      0.075620000000     0.649410000000     0.146590000000     0.0445488  
H50      H      0.139590000000     0.624600000000     0.207520000000     0.0462323  
H51      H      0.223480000000     0.635280000000     0.183790000000     0.050934   
H52      H      0.066810000000     0.714380000000     0.138200000000     0.0640829  
H53      H      0.122970000000     0.673920000000     0.088270000000     0.0516359  
H54      H      0.151670000000     0.724070000000     0.115060000000     0.0398476  
H55      H      0.167640000000     0.676060000000     0.233440000000     0.0507644  
H56      H      0.213800000000     0.700330000000     0.174470000000     0.0372016  
H57      H      0.413110000000     0.660400000000     0.998500000000     0.0456729  
H58      H      0.365810000000     0.626130000000     0.927750000000     0.0435251  
H59      H      0.277520000000     0.635240000000     0.438130000000     0.0545005  
H60      H      0.416990000000     0.726760000000     0.002070000000     0.0536645  
H61      H      0.349640000000     0.690350000000     0.044280000000     0.0493192  
H62      H      0.327300000000     0.733810000000     0.507840000000     0.0364473  
H63      H      0.342570000000     0.676560000000     0.395810000000     0.0527987  
H64      H      0.282270000000     0.701200000000     0.444880000000     0.0387428  
H65      H      0.366990000000     0.384840000000     0.415050000000     0.0409654  
H66      H      0.388880000000     0.383670000000     0.331340000000     0.0427383  
H67      H      0.399320000000     0.469450000000     0.309720000000     0.0469918  
H68      H      0.420040000000     0.397060000000     0.446120000000     0.0455143  
H69      H      0.364400000000     0.471180000000     0.435420000000     0.0498979  
H70      H      0.427640000000     0.480920000000     0.420680000000     0.0391172  
H71      H      0.452980000000     0.394620000000     0.320680000000     0.0491783  
H72      H      0.448500000000     0.478940000000     0.345360000000     0.0374552  
H73      H      0.427550000000     0.070750000000     0.388560000000     0.0398146  
H74      H      0.447980000000     0.075420000000     0.465020000000     0.0389832  
H75      H      0.440900000000     0.160370000000     0.488850000000     0.0514105  
H76      H      0.363480000000     0.071010000000     0.373400000000     0.0490812  
H77      H      0.405920000000     0.152800000000     0.362720000000     0.0481003  
H78      H      0.354070000000     0.156710000000     0.395980000000     0.0411722  
H79      H      0.398340000000     0.078160000000     0.999610000000     0.047078   
H80      H      0.376280000000     0.162000000000     0.475990000000     0.0424164  
H81      H      0.448290000000     0.447850000000     0.056380000000     0.0404238  
H82      H      0.433860000000     0.462170000000     0.132720000000     0.039958   
H83      H      0.346280000000     0.462780000000     0.148590000000     0.050661   
H84      H      0.440990000000     0.385850000000     0.037190000000     0.0505954  
H85      H      0.369130000000     0.442700000000     0.022240000000     0.0459262  
H86      H      0.352590000000     0.387260000000     0.049010000000     0.0408818  
H87      H      0.419490000000     0.409420000000     0.163620000000     0.0482334  
H88      H      0.338800000000     0.400120000000     0.131190000000     0.0423521  
H89      H      0.326240000000     0.181450000000     0.207490000000     0.0402221  
H90      H      0.313350000000     0.161850000000     0.130800000000     0.040675   
H91      H      0.392650000000     0.148300000000     0.098530000000     0.048115   
H92      H      0.339310000000     0.130280000000     0.240580000000     0.0474593  
H93      H      0.414080000000     0.181940000000     0.223580000000     0.0494864  
H94      H      0.419920000000     0.117640000000     0.210130000000     0.040835   
H95      H      0.317490000000     0.098200000000     0.115150000000     0.0518451  
H96      H      0.405720000000     0.096360000000     0.130650000000     0.0405569  
H97      H      0.868630000000     0.899530000000     0.032800000000     0.0433211  
H98      H      0.899380000000     0.900150000000     0.947650000000     0.0446859  
H99      H      0.913590000000     0.987650000000     0.430730000000     0.0467585  
H100     H      0.920060000000     0.910850000000     0.065810000000     0.0483738  
H101     H      0.865750000000     0.985710000000     0.053090000000     0.0492272  
H102     H      0.930050000000     0.992700000000     0.542070000000     0.0383632  
H103     H      0.963570000000     0.910340000000     0.442890000000     0.0482515  
H104     H      0.958110000000     0.992960000000     0.470820000000     0.0375041  
H105     H      0.687790000000     0.847070000000     0.385910000000     0.0402675  
H106     H      0.666120000000     0.834960000000     0.460810000000     0.0402518  
H107     H      0.644890000000     0.914910000000     0.989690000000     0.0473717  
H108     H      0.638120000000     0.850270000000     0.349820000000     0.0474727  
H109     H      0.676040000000     0.933020000000     0.364100000000     0.0494686  
H110     H      0.611530000000     0.930530000000     0.376820000000     0.0402469  
H111     H      0.602040000000     0.833240000000     0.474790000000     0.0498449  
H112     H      0.591790000000     0.920380000000     0.457710000000     0.0404017  
H113     H      0.646700000000     0.214140000000     0.992860000000     0.0433803  
H114     H      0.696330000000     0.193440000000     0.059910000000     0.038588   
H115     H      0.641830000000     0.159710000000     0.111640000000     0.0510232  
H116     H      0.626850000000     0.162820000000     0.962530000000     0.0527071  
H117     H      0.559210000000     0.199260000000     0.005390000000     0.0663882  
H118     H      0.570000000000     0.134490000000     0.013680000000     0.0413612  
H119     H      0.710800000000     0.129410000000     0.069630000000     0.0529176  
H120     H      0.623030000000     0.109800000000     0.079110000000     0.043988   
H121     H      0.931230000000     0.970110000000     0.288970000000     0.0390867  
H122     H      0.956660000000     0.973810000000     0.214510000000     0.0378253  
H123     H      0.952470000000     0.891810000000     0.184470000000     0.0506345  
H124     H      0.866300000000     0.968130000000     0.300770000000     0.0499834  
H125     H      0.908370000000     0.885650000000     0.308160000000     0.0480972  
H126     H      0.858460000000     0.884860000000     0.272300000000     0.0422842  
H127     H      0.909070000000     0.973850000000     0.176660000000     0.0462169  
H128     H      0.886970000000     0.888190000000     0.192550000000     0.0430366  
H129     H      0.656900000000     0.875030000000     0.218730000000     0.0409759  
H130     H      0.641670000000     0.906140000000     0.141620000000     0.0422549  
H131     H      0.554680000000     0.929510000000     0.133540000000     0.0479236  
H132     H      0.661330000000     0.922950000000     0.255970000000     0.0474545  
H133     H      0.578820000000     0.879960000000     0.255110000000     0.05037    
H134     H      0.574770000000     0.945650000000     0.245520000000     0.0388617  
H135     H      0.637300000000     0.972100000000     0.134240000000     0.0492425  
H136     H      0.560660000000     0.975270000000     0.172400000000     0.0388369  
H137     H      0.670210000000     0.227700000000     0.268570000000     0.0370952  
H138     H      0.713190000000     0.189480000000     0.332780000000     0.0398858  
H139     H      0.651380000000     0.154090000000     0.377560000000     0.0517798  
H140     H      0.649110000000     0.185860000000     0.230180000000     0.0502531  
H141     H      0.580780000000     0.218710000000     0.273800000000     0.0546023  
H142     H      0.585780000000     0.152380000000     0.274550000000     0.0429192  
H143     H      0.719930000000     0.123120000000     0.334660000000     0.0560442  
H144     H      0.630550000000     0.111750000000     0.339360000000     0.0424864  
H145     H      0.627220000000     0.641650000000     0.295500000000     0.0425882  
H146     H      0.626690000000     0.609750000000     0.381140000000     0.0460606  
H147     H      0.540250000000     0.596990000000     0.399040000000     0.0468391  
H148     H      0.613350000000     0.590450000000     0.263100000000     0.043886   
H149     H      0.541010000000     0.648200000000     0.276910000000     0.0509658  
H150     H      0.530140000000     0.583520000000     0.287650000000     0.0381133  
H151     H      0.614860000000     0.544370000000     0.385430000000     0.0491418  
H152     H      0.531930000000     0.553450000000     0.358750000000     0.0368552  
H153     H      0.930150000000     0.600570000000     0.336920000000     0.0407078  
H154     H      0.938540000000     0.577270000000     0.260990000000     0.0397065  
H155     H      0.859000000000     0.585190000000     0.226500000000     0.0513993  
H156     H      0.927910000000     0.665490000000     0.349710000000     0.0489017  
H157     H      0.844700000000     0.624080000000     0.351340000000     0.0490761  
H158     H      0.847710000000     0.674450000000     0.316000000000     0.0413606  
H159     H      0.942130000000     0.626730000000     0.224940000000     0.0476533  
H160     H      0.856350000000     0.650240000000     0.238200000000     0.0423194  
H161     H      0.694250000000     0.303330000000     0.237540000000     0.0374464  
H162     H      0.716980000000     0.354560000000     0.175890000000     0.038419   
H163     H      0.642590000000     0.382260000000     0.141530000000     0.0537606  
H164     H      0.677520000000     0.334450000000     0.283140000000     0.0485489  
H165     H      0.605000000000     0.297640000000     0.246210000000     0.0503545  
H166     H      0.600210000000     0.363560000000     0.252600000000     0.0459308  
H167     H      0.713490000000     0.421110000000     0.178910000000     0.0545909  
H168     H      0.624360000000     0.419120000000     0.183570000000     0.0437863  
H169     H      0.657810000000     0.665510000000     0.171170000000     0.0409473  
H170     H      0.641250000000     0.682130000000     0.092670000000     0.041942   
H171     H      0.612290000000     0.605530000000     0.060160000000     0.0491462  
H172     H      0.604340000000     0.660520000000     0.202660000000     0.0459805  
H173     H      0.642280000000     0.577980000000     0.185430000000     0.0520316  
H174     H      0.578680000000     0.583730000000     0.169750000000     0.04       
H175     H      0.577880000000     0.688810000000     0.076930000000     0.0513674  
H176     H      0.560750000000     0.601890000000     0.093760000000     0.0409856  
H177     H      0.894880000000     0.607100000000     0.010060000000     0.041727   
H178     H      0.922040000000     0.608280000000     0.087910000000     0.0408096  
H179     H      0.913530000000     0.692240000000     0.114950000000     0.0519522  
H180     H      0.829450000000     0.608620000000     0.999570000000     0.0486245  
H181     H      0.871020000000     0.691260000000     0.989940000000     0.0478741  
H182     H      0.823790000000     0.691320000000     0.526470000000     0.0407971  
H183     H      0.873420000000     0.609400000000     0.124280000000     0.0483858  
H184     H      0.848680000000     0.692620000000     0.102400000000     0.0416075  
H185     H      0.710490000000     0.340380000000     0.460620000000     0.0380384  
H186     H      0.671970000000     0.297630000000     0.022470000000     0.0384814  
H187     H      0.646630000000     0.359830000000     0.070010000000     0.0507797  
H188     H      0.670220000000     0.363380000000     0.421720000000     0.051104   
H189     H      0.706200000000     0.430470000000     0.464900000000     0.0540201  
H190     H      0.639900000000     0.428840000000     0.465690000000     0.0448648  
H191     H      0.605710000000     0.295250000000     0.026390000000     0.0541485  
H192     H      0.601080000000     0.384390000000     0.035990000000     0.045515   
H193     H      0.093990000000     0.455800000000     0.264410000000     0.040839   
H194     H      0.075920000000     0.440020000000     0.342620000000     0.0392601  
H195     H      0.080500000000     0.351650000000     0.356980000000     0.0521476  
H196     H      0.157690000000     0.453830000000     0.249240000000     0.0497286  
H197     H      0.110070000000     0.376720000000     0.231740000000     0.0479379  
H198     H      0.162550000000     0.365350000000     0.263820000000     0.0406076  
H199     H      0.128450000000     0.428480000000     0.374460000000     0.0464109  
H200     H      0.144080000000     0.349510000000     0.341760000000     0.0411606  
H201     H      0.134320000000     0.132360000000     0.275370000000     0.041764   
H202     H      0.110360000000     0.135330000000     0.191170000000     0.0423234  
H203     H      0.087910000000     0.050790000000     0.172020000000     0.0471742  
H204     H      0.080840000000     0.129180000000     0.306830000000     0.0479663  
H205     H      0.122930000000     0.046890000000     0.297980000000     0.0483996  
H206     H      0.059230000000     0.047260000000     0.281810000000     0.0388668  
H207     H      0.045020000000     0.133050000000     0.181340000000     0.0483967  
H208     H      0.038850000000     0.049460000000     0.208150000000     0.0380777  
H209     H      0.802290000000     0.181270000000     0.309070000000     0.0407236  
H210     H      0.830280000000     0.234840000000     0.372060000000     0.0395853  
H211     H      0.853930000000     0.180720000000     0.427010000000     0.0509899  
H212     H      0.849990000000     0.153860000000     0.279190000000     0.0497953  
H213     H      0.808520000000     0.092920000000     0.325590000000     0.068745   
H214     H      0.873750000000     0.098440000000     0.333810000000     0.0459946  
H215     H      0.895850000000     0.239900000000     0.381370000000     0.0584203  
H216     H      0.902540000000     0.153330000000     0.398030000000     0.0439485  
H217     H      0.886060000000     0.449850000000     0.203960000000     0.0426776  
H218     H      0.921190000000     0.414550000000     0.136800000000     0.041079   
H219     H      0.922760000000     0.325000000000     0.140040000000     0.0561176  
H220     H      0.820270000000     0.450370000000     0.210260000000     0.0606603  
H221     H      0.861930000000     0.382930000000     0.249220000000     0.0509531  
H222     H      0.817780000000     0.359730000000     0.213380000000     0.040355   
H223     H      0.877930000000     0.390450000000     0.100530000000     0.0511315  
H224     H      0.856250000000     0.321910000000     0.144160000000     0.0401498  
H225     H      0.039840000000     0.444490000000     0.066630000000     0.0400273  
H226     H      0.049850000000     0.457930000000     0.989010000000     0.0379677  
H227     H      0.136510000000     0.465260000000     0.972920000000     0.0504565  
H228     H      0.049080000000     0.382820000000     0.086090000000     0.0488644  
H229     H      0.120250000000     0.440440000000     0.099310000000     0.048027   
H230     H      0.137010000000     0.386320000000     0.071230000000     0.0414346  
H231     H      0.066650000000     0.405350000000     0.959120000000     0.0464563  
H232     H      0.148630000000     0.402750000000     0.988820000000     0.0416612  
H233     H      0.149490000000     0.152020000000     0.440960000000     0.0410652  
H234     H      0.155000000000     0.138880000000     0.524220000000     0.0407842  
H235     H      0.071390000000     0.137020000000     0.047790000000     0.0472836  
H236     H      0.136730000000     0.096340000000     0.413150000000     0.0467451  
H237     H      0.063070000000     0.152000000000     0.419770000000     0.0487555  
H238     H      0.054440000000     0.092490000000     0.939370000000     0.0393031  
H239     H      0.143550000000     0.078470000000     0.040680000000     0.0495838  
H240     H      0.058340000000     0.082440000000     0.018860000000     0.0390556  
H241     H      0.796780000000     0.187090000000     0.058760000000     0.0409895  
H242     H      0.833220000000     0.239180000000     0.119740000000     0.0396223  
H243     H      0.863870000000     0.185250000000     0.172960000000     0.0519329  
H244     H      0.840250000000     0.157080000000     0.026450000000     0.0533342  
H245     H      0.799070000000     0.100250000000     0.077030000000     0.062675   
H246     H      0.865330000000     0.100220000000     0.079030000000     0.0453411  
H247     H      0.899680000000     0.243720000000     0.123680000000     0.0539115  
H248     H      0.906870000000     0.156280000000     0.139530000000     0.0453772  
H249     H      0.847660000000     0.425630000000     0.443810000000     0.0448668  
H250     H      0.915030000000     0.418330000000     0.386410000000     0.0403203  
H251     H      0.930580000000     0.331220000000     0.371470000000     0.0622058  
H252     H      0.784080000000     0.416020000000     0.429620000000     0.0502949  
H253     H      0.821540000000     0.342470000000     0.964210000000     0.0488909  
H254     H      0.799660000000     0.328870000000     0.414850000000     0.0383027  
H255     H      0.893360000000     0.404620000000     0.336550000000     0.0507204  
H256     H      0.866750000000     0.322110000000     0.357140000000     0.0465666  
H257     H      0.090930000000     0.871500000000     0.894880000000     0.0449211  
H258     H      0.137250000000     0.916280000000     0.829310000000     0.0442882  
H259     H      0.226330000000     0.911080000000     0.838400000000     0.0573096  
H260     H      0.093120000000     0.805070000000     0.895140000000     0.0554206  
H261     H      0.155520000000     0.846100000000     0.941200000000     0.0495856  
H262     H      0.181760000000     0.805020000000     0.904800000000     0.0378366  
H263     H      0.162340000000     0.873560000000     0.793530000000     0.05105    
H264     H      0.223820000000     0.844380000000     0.841610000000     0.0405044  
H265     H      0.101540000000     0.863650000000     0.649800000000     0.0480495  
H266     H      0.137230000000     0.914700000000     0.581050000000     0.0453016  
H267     H      0.226740000000     0.910140000000     0.583100000000     0.0573825  
H268     H      0.103110000000     0.797440000000     0.645330000000     0.0571836  
H269     H      0.173070000000     0.831880000000     0.686750000000     0.0490963  
H270     H      0.193100000000     0.797290000000     0.643800000000     0.0367258  
H271     H      0.157690000000     0.874340000000     0.541750000000     0.0500458  
H272     H      0.225100000000     0.843310000000     0.582600000000     0.0384772  
H273     H      0.362240000000     0.836070000000     0.757520000000     0.0436215  
H274     H      0.317450000000     0.868500000000     0.827170000000     0.0412293  
H275     H      0.382700000000     0.896990000000     0.872030000000     0.0503226  
H276     H      0.379920000000     0.884040000000     0.722970000000     0.0541     
H277     H      0.451360000000     0.850990000000     0.762170000000     0.0593719  
H278     H      0.441530000000     0.916080000000     0.770040000000     0.0391625  
H279     H      0.312820000000     0.934880000000     0.831910000000     0.0588671  
H280     H      0.401620000000     0.944040000000     0.836910000000     0.0407557  
H281     H      0.374580000000     0.938790000000     0.587530000000     0.0440996  
H282     H      0.401620000000     0.874080000000     0.527090000000     0.0463665  
H283     H      0.390260000000     0.788990000000     0.550550000000     0.0476302  
H284     H      0.309530000000     0.945040000000     0.594940000000     0.0634532  
H285     H      0.352600000000     0.889590000000     0.645450000000     0.0534883  
H286     H      0.302970000000     0.859730000000     0.619060000000     0.0423787  
H287     H      0.351060000000     0.845630000000     0.000180000000     0.0497398  
H288     H      0.325710000000     0.799860000000     0.559750000000     0.0362068  
H289     H      0.065500000000     0.651730000000     0.895260000000     0.0442774  
H290     H      0.086500000000     0.598760000000     0.958710000000     0.0402531  
H291     H      0.174780000000     0.590670000000     0.966150000000     0.060793   
H292     H      0.070190000000     0.718060000000     0.898930000000     0.0598103  
H293     H      0.140990000000     0.679420000000     0.862300000000     0.0513288  
H294     H      0.160050000000     0.713200000000     0.906110000000     0.0383897  
H295     H      0.106050000000     0.630480000000     0.503170000000     0.0512254  
H296     H      0.182820000000     0.656670000000     0.972580000000     0.0430022  
H297     H      0.314890000000     0.733070000000     0.781430000000     0.0391532  
H298     H      0.297300000000     0.681270000000     0.717530000000     0.0393194  
H299     H      0.373250000000     0.646540000000     0.689280000000     0.0518251  
H300     H      0.329250000000     0.701010000000     0.827260000000     0.0505694  
H301     H      0.403360000000     0.738210000000     0.792400000000     0.0504418  
H302     H      0.407810000000     0.672380000000     0.800310000000     0.0450273  
H303     H      0.297200000000     0.614470000000     0.721680000000     0.0534655  
H304     H      0.386420000000     0.614460000000     0.735440000000     0.0425632  
H305     H      0.075700000000     0.649560000000     0.646430000000     0.0446374  
H306     H      0.139710000000     0.624760000000     0.707400000000     0.0462604  
H307     H      0.223590000000     0.635360000000     0.683630000000     0.0508755  
H308     H      0.066970000000     0.714520000000     0.638010000000     0.0641297  
H309     H      0.123080000000     0.673980000000     0.588100000000     0.0515423  
H310     H      0.151830000000     0.724120000000     0.614870000000     0.0397207  
H311     H      0.167790000000     0.676240000000     0.733260000000     0.0507415  
H312     H      0.213930000000     0.700400000000     0.674260000000     0.0371912  
H313     H      0.413800000000     0.661380000000     0.498040000000     0.0453807  
H314     H      0.365310000000     0.627420000000     0.427190000000     0.0436927  
H315     H      0.278390000000     0.634300000000     0.938080000000     0.0541609  
H316     H      0.415900000000     0.727910000000     0.501940000000     0.0517907  
H317     H      0.349950000000     0.690040000000     0.544380000000     0.0499112  
H318     H      0.327550000000     0.733740000000     0.007220000000     0.0363155  
H319     H      0.343620000000     0.674940000000     0.895780000000     0.0530598  
H320     H      0.282190000000     0.700190000000     0.944320000000     0.0383424  
H321     H      0.366470000000     0.384640000000     0.915350000000     0.0407812  
H322     H      0.388450000000     0.383630000000     0.831710000000     0.0427615  
H323     H      0.398840000000     0.469430000000     0.810130000000     0.0469869  
H324     H      0.419450000000     0.396880000000     0.946500000000     0.0451827  
H325     H      0.363730000000     0.470940000000     0.935810000000     0.0496444  
H326     H      0.426970000000     0.480790000000     0.921160000000     0.038991   
H327     H      0.452540000000     0.394640000000     0.821070000000     0.0492424  
H328     H      0.447970000000     0.478940000000     0.845820000000     0.0374658  
H329     H      0.428240000000     0.070640000000     0.888490000000     0.0397412  
H330     H      0.448700000000     0.075110000000     0.964860000000     0.0387523  
H331     H      0.441230000000     0.159910000000     0.988980000000     0.0510272  
H332     H      0.364170000000     0.070640000000     0.873320000000     0.0490239  
H333     H      0.406220000000     0.152680000000     0.862840000000     0.048126   
H334     H      0.354350000000     0.156220000000     0.896110000000     0.0411612  
H335     H      0.397570000000     0.078900000000     0.499690000000     0.0474414  
H336     H      0.376580000000     0.161280000000     0.976170000000     0.0422094  
H337     H      0.448320000000     0.447830000000     0.556180000000     0.0402128  
H338     H      0.433960000000     0.462240000000     0.632510000000     0.0399704  
H339     H      0.346410000000     0.462790000000     0.648470000000     0.0506246  
H340     H      0.441040000000     0.385810000000     0.537040000000     0.0502304  
H341     H      0.369120000000     0.442600000000     0.522110000000     0.0456471  
H342     H      0.352650000000     0.387180000000     0.548930000000     0.0406781  
H343     H      0.419680000000     0.409520000000     0.663470000000     0.0482627  
H344     H      0.338950000000     0.400110000000     0.631120000000     0.0422874  
H345     H      0.326190000000     0.181560000000     0.707400000000     0.0402136  
H346     H      0.313290000000     0.161930000000     0.630710000000     0.0405536  
H347     H      0.392590000000     0.148340000000     0.598450000000     0.0479226  
H348     H      0.339240000000     0.130400000000     0.740510000000     0.0474584  
H349     H      0.414030000000     0.182030000000     0.723490000000     0.0494877  
H350     H      0.419850000000     0.117720000000     0.710050000000     0.0408477  
H351     H      0.317420000000     0.098260000000     0.615090000000     0.051717   
H352     H      0.405640000000     0.096410000000     0.630590000000     0.0405054  
H353     H      0.866930000000     0.898910000000     0.531940000000     0.0429368  
H354     H      0.898060000000     0.900810000000     0.447370000000     0.0447441  
H355     H      0.913140000000     0.987300000000     0.930300000000     0.0467915  
H356     H      0.918150000000     0.908760000000     0.565450000000     0.048494   
H357     H      0.865370000000     0.984790000000     0.553280000000     0.0493106  
H358     H      0.930220000000     0.994550000000     0.041540000000     0.0384181  
H359     H      0.964820000000     0.911750000000     0.943450000000     0.0480256  
H360     H      0.957840000000     0.993960000000     0.970110000000     0.0371121  
H361     H      0.687510000000     0.847470000000     0.885850000000     0.0402585  
H362     H      0.665940000000     0.835260000000     0.960770000000     0.040055   
H363     H      0.645080000000     0.914640000000     0.489690000000     0.0477091  
H364     H      0.637800000000     0.850630000000     0.849800000000     0.0474692  
H365     H      0.675600000000     0.933420000000     0.864050000000     0.0494943  
H366     H      0.611120000000     0.930830000000     0.876880000000     0.0401913  
H367     H      0.601870000000     0.833500000000     0.974790000000     0.0495826  
H368     H      0.591560000000     0.920640000000     0.957760000000     0.0401847  
H369     H      0.646920000000     0.214090000000     0.492990000000     0.0434182  
H370     H      0.696310000000     0.193180000000     0.560090000000     0.0383925  
H371     H      0.641600000000     0.159380000000     0.611660000000     0.0510817  
H372     H      0.627110000000     0.162880000000     0.462530000000     0.0523852  
H373     H      0.559360000000     0.199280000000     0.505300000000     0.0661661  
H374     H      0.570070000000     0.134480000000     0.513510000000     0.0412377  
H375     H      0.710670000000     0.129100000000     0.569750000000     0.0527999  
H376     H      0.622840000000     0.109580000000     0.579000000000     0.043881   
H377     H      0.930790000000     0.969670000000     0.789050000000     0.0391065  
H378     H      0.956140000000     0.973510000000     0.714530000000     0.0378296  
H379     H      0.951950000000     0.891550000000     0.684410000000     0.050558   
H380     H      0.865870000000     0.967610000000     0.800880000000     0.0500053  
H381     H      0.908020000000     0.885150000000     0.808150000000     0.0481139  
H382     H      0.858090000000     0.884390000000     0.772300000000     0.0422864  
H383     H      0.908490000000     0.973570000000     0.676740000000     0.0462027  
H384     H      0.886480000000     0.887870000000     0.692580000000     0.0430006  
H385     H      0.656440000000     0.875090000000     0.718910000000     0.0409461  
H386     H      0.640810000000     0.906560000000     0.641920000000     0.0421835  
H387     H      0.553790000000     0.930080000000     0.634240000000     0.0478201  
H388     H      0.661080000000     0.922850000000     0.756270000000     0.0474546  
H389     H      0.578540000000     0.879900000000     0.755560000000     0.0503981  
H390     H      0.574490000000     0.945640000000     0.746180000000     0.0388537  
H391     H      0.636470000000     0.972560000000     0.634760000000     0.0491291  
H392     H      0.560050000000     0.975620000000     0.673240000000     0.0387978  
H393     H      0.670290000000     0.227860000000     0.768900000000     0.0371041  
H394     H      0.713260000000     0.189610000000     0.833070000000     0.0398556  
H395     H      0.651430000000     0.154460000000     0.877930000000     0.0517668  
H396     H      0.649060000000     0.186050000000     0.730530000000     0.0502697  
H397     H      0.580840000000     0.219070000000     0.774170000000     0.0545255  
H398     H      0.585700000000     0.152730000000     0.774950000000     0.0429388  
H399     H      0.719850000000     0.123230000000     0.834990000000     0.0560941  
H400     H      0.630460000000     0.112080000000     0.839810000000     0.0424885  
H401     H      0.627560000000     0.641900000000     0.795350000000     0.0425675  
H402     H      0.627090000000     0.610060000000     0.880940000000     0.0459999  
H403     H      0.540670000000     0.597290000000     0.898950000000     0.0467427  
H404     H      0.613590000000     0.590730000000     0.762950000000     0.0439226  
H405     H      0.541350000000     0.648580000000     0.776840000000     0.0510295  
H406     H      0.530400000000     0.583900000000     0.787540000000     0.0381819  
H407     H      0.615250000000     0.544690000000     0.885300000000     0.049133   
H408     H      0.532280000000     0.553760000000     0.858660000000     0.0368578  
H409     H      0.930250000000     0.600250000000     0.836690000000     0.0406955  
H410     H      0.938660000000     0.577000000000     0.760800000000     0.0397078  
H411     H      0.859180000000     0.585150000000     0.726250000000     0.0513447  
H412     H      0.928200000000     0.665170000000     0.849540000000     0.0488622  
H413     H      0.844840000000     0.624050000000     0.851090000000     0.049027   
H414     H      0.848060000000     0.674420000000     0.815760000000     0.0413249  
H415     H      0.942430000000     0.626470000000     0.724760000000     0.0476515  
H416     H      0.856700000000     0.650200000000     0.737950000000     0.0423421  
H417     H      0.694190000000     0.303270000000     0.737650000000     0.0374311  
H418     H      0.717200000000     0.354210000000     0.675940000000     0.0383503  
H419     H      0.642990000000     0.381820000000     0.641330000000     0.0536989  
H420     H      0.677350000000     0.334580000000     0.783140000000     0.0485582  
H421     H      0.604910000000     0.297720000000     0.746140000000     0.0503149  
H422     H      0.600170000000     0.363670000000     0.752370000000     0.0459313  
H423     H      0.713790000000     0.420770000000     0.678780000000     0.0547109  
H424     H      0.624640000000     0.418940000000     0.683180000000     0.0438707  
H425     H      0.657580000000     0.665950000000     0.671340000000     0.0409252  
H426     H      0.641550000000     0.683530000000     0.592970000000     0.0417611  
H427     H      0.613150000000     0.607290000000     0.559670000000     0.04898    
H428     H      0.603910000000     0.660450000000     0.702560000000     0.0459075  
H429     H      0.642150000000     0.578230000000     0.684860000000     0.0520135  
H430     H      0.578650000000     0.584010000000     0.668950000000     0.0400733  
H431     H      0.578290000000     0.690230000000     0.576960000000     0.0511573  
H432     H      0.561280000000     0.603060000000     0.592890000000     0.0409337  
H433     H      0.895510000000     0.606090000000     0.509320000000     0.0415645  
H434     H      0.922720000000     0.606960000000     0.586950000000     0.0406577  
H435     H      0.914390000000     0.690780000000     0.614330000000     0.0519656  
H436     H      0.830080000000     0.607700000000     0.498790000000     0.0498885  
H437     H      0.871730000000     0.690310000000     0.489330000000     0.0491     
H438     H      0.823090000000     0.692320000000     0.027080000000     0.0408017  
H439     H      0.874260000000     0.607920000000     0.623470000000     0.0483473  
H440     H      0.849510000000     0.691300000000     0.601890000000     0.0417327  
H441     H      0.710300000000     0.339730000000     0.960360000000     0.0377276  
H442     H      0.671690000000     0.297930000000     0.522600000000     0.0381747  
H443     H      0.644780000000     0.361060000000     0.569440000000     0.0510195  
H444     H      0.669770000000     0.363920000000     0.922110000000     0.0511931  
H445     H      0.707990000000     0.428920000000     0.965700000000     0.053416   
H446     H      0.641600000000     0.429910000000     0.966860000000     0.0446984  
H447     H      0.605630000000     0.295460000000     0.525990000000     0.0540533  
H448     H      0.599470000000     0.384390000000     0.534610000000     0.0451495  
H449     H      0.093500000000     0.456310000000     0.764490000000     0.040842   
H450     H      0.075270000000     0.440400000000     0.842620000000     0.0392119  
H451     H      0.079800000000     0.352000000000     0.856900000000     0.0521947  
H452     H      0.157230000000     0.454370000000     0.749390000000     0.0497623  
H453     H      0.109610000000     0.377300000000     0.731730000000     0.0478986  
H454     H      0.162050000000     0.365850000000     0.763840000000     0.0405949  
H455     H      0.127720000000     0.428790000000     0.874540000000     0.046332   
H456     H      0.143410000000     0.349870000000     0.841770000000     0.0411653  
H457     H      0.134280000000     0.132860000000     0.775120000000     0.0417169  
H458     H      0.110330000000     0.135690000000     0.690990000000     0.0422994  
H459     H      0.087790000000     0.051150000000     0.671920000000     0.0471472  
H460     H      0.080840000000     0.129800000000     0.806640000000     0.0479532  
H461     H      0.122820000000     0.047450000000     0.797880000000     0.0483615  
H462     H      0.059110000000     0.047850000000     0.781720000000     0.0388719  
H463     H      0.044990000000     0.133470000000     0.681130000000     0.0483653  
H464     H      0.038720000000     0.049930000000     0.708040000000     0.0380942  
H465     H      0.802170000000     0.181100000000     0.808860000000     0.0407757  
H466     H      0.830040000000     0.234900000000     0.871810000000     0.0395427  
H467     H      0.853770000000     0.180900000000     0.926810000000     0.0507612  
H468     H      0.849960000000     0.153760000000     0.779030000000     0.0497928  
H469     H      0.808670000000     0.092780000000     0.825490000000     0.0687555  
H470     H      0.873870000000     0.098540000000     0.833740000000     0.045888   
H471     H      0.895610000000     0.240070000000     0.881120000000     0.0582882  
H472     H      0.902450000000     0.153570000000     0.897880000000     0.0437605  
H473     H      0.885630000000     0.450060000000     0.703050000000     0.0427073  
H474     H      0.920400000000     0.414330000000     0.635910000000     0.0410485  
H475     H      0.922220000000     0.324860000000     0.639670000000     0.0561886  
H476     H      0.819880000000     0.450570000000     0.709590000000     0.0608551  
H477     H      0.861800000000     0.383480000000     0.748740000000     0.0509325  
H478     H      0.817490000000     0.359940000000     0.713170000000     0.0403221  
H479     H      0.876960000000     0.389840000000     0.599950000000     0.0509338  
H480     H      0.855740000000     0.321600000000     0.643980000000     0.0400824  
H481     H      0.039870000000     0.444290000000     0.566400000000     0.0398716  
H482     H      0.050170000000     0.457230000000     0.488690000000     0.0382249  
H483     H      0.136890000000     0.464660000000     0.472870000000     0.0505057  
H484     H      0.049140000000     0.382750000000     0.586120000000     0.0488959  
H485     H      0.120150000000     0.440570000000     0.599300000000     0.0480144  
H486     H      0.137120000000     0.386310000000     0.571470000000     0.0412764  
H487     H      0.067230000000     0.404470000000     0.459120000000     0.046472   
H488     H      0.149070000000     0.402260000000     0.489050000000     0.0418519  
H489     H      0.150940000000     0.153360000000     0.940830000000     0.0408086  
H490     H      0.155570000000     0.140560000000     0.023740000000     0.041128   
H491     H      0.070370000000     0.136230000000     0.548060000000     0.0473169  
H492     H      0.138360000000     0.097690000000     0.912970000000     0.0468454  
H493     H      0.065240000000     0.153720000000     0.919700000000     0.0486831  
H494     H      0.053570000000     0.090820000000     0.440210000000     0.0396034  
H495     H      0.141430000000     0.076770000000     0.540610000000     0.0495083  
H496     H      0.056980000000     0.081570000000     0.519320000000     0.0386802  
H497     H      0.796590000000     0.187290000000     0.559460000000     0.0407787  
H498     H      0.833590000000     0.238900000000     0.620510000000     0.0396111  
H499     H      0.864380000000     0.184550000000     0.673390000000     0.051994   
H500     H      0.839770000000     0.157320000000     0.526870000000     0.0530565  
H501     H      0.798730000000     0.100310000000     0.577390000000     0.062542   
H502     H      0.864990000000     0.100120000000     0.579170000000     0.0453207  
H503     H      0.900090000000     0.243180000000     0.624200000000     0.0541262  
H504     H      0.907020000000     0.155590000000     0.639650000000     0.045254   
H505     H      0.848030000000     0.425630000000     0.943500000000     0.0446437  
H506     H      0.915310000000     0.418430000000     0.886060000000     0.0402743  
H507     H      0.930860000000     0.331350000000     0.871130000000     0.0623382  
H508     H      0.784420000000     0.416160000000     0.929330000000     0.0500913  
H509     H      0.821370000000     0.342480000000     0.464630000000     0.0491492  
H510     H      0.799880000000     0.329010000000     0.914380000000     0.0382501  
H511     H      0.893610000000     0.404770000000     0.836210000000     0.0507392  
H512     H      0.867050000000     0.322230000000     0.856730000000     0.0466722  
In1      In     0.972280000000     0.266880000000     0.998270000000     2.3943     
In2      In     0.984400000000     0.262610000000     0.263260000000     2.45739    
In3      In     0.746090000000     0.502370000000     0.089740000000     2.45692    
In4      In     0.748530000000     0.491570000000     0.305390000000     2.44776    
In5      In     0.761010000000     0.053500000000     0.210330000000     2.42079    
In6      In     0.754010000000     0.043970000000     0.453420000000     2.44772    
In7      In     0.510860000000     0.269900000000     0.128400000000     2.44047    
In8      In     0.525650000000     0.269170000000     0.401820000000     2.42839    
In9      In     0.243750000000     0.553760000000     0.060740000000     2.43651    
In10     In     0.250420000000     0.546470000000     0.344390000000     2.42217    
In11     In     0.482700000000     0.777860000000     0.169880000000     2.44608    
In12     In     0.493220000000     0.761850000000     0.378460000000     2.43511    
In13     In     0.244550000000     0.988670000000     0.208140000000     2.43321    
In14     In     0.257700000000     0.985990000000     0.463070000000     2.4026     
In15     In     0.015810000000     0.776270000000     0.024200000000     2.48517    
In16     In     0.026110000000     0.769170000000     0.267150000000     2.41966    
In17     In     0.972090000000     0.266660000000     0.498560000000     2.39774    
In18     In     0.984050000000     0.262930000000     0.762990000000     2.45679    
In19     In     0.745680000000     0.502420000000     0.589060000000     2.45673    
In20     In     0.748650000000     0.491610000000     0.805140000000     2.44836    
In21     In     0.760680000000     0.053450000000     0.710650000000     2.42094    
In22     In     0.753900000000     0.044120000000     0.953310000000     2.44595    
In23     In     0.510880000000     0.269880000000     0.628290000000     2.44045    
In24     In     0.525500000000     0.269360000000     0.902180000000     2.42815    
In25     In     0.243800000000     0.553690000000     0.560640000000     2.43627    
In26     In     0.250000000000     0.546600000000     0.844750000000     2.42177    
In27     In     0.482340000000     0.778040000000     0.670190000000     2.44576    
In28     In     0.493120000000     0.761940000000     0.878480000000     2.43514    
In29     In     0.244330000000     0.988880000000     0.708100000000     2.433      
In30     In     0.258000000000     0.986010000000     0.962910000000     2.40112    
In31     In     0.015960000000     0.776020000000     0.523820000000     2.483      
In32     In     0.026090000000     0.769100000000     0.767000000000     2.41977    
N1       N      0.194760000000     0.880330000000     0.392350000000    -0.16556    
N2       N      0.121100000000     0.840920000000     0.342150000000    -0.165889   
N3       N      0.201860000000     0.874470000000     0.137410000000    -0.166795   
N4       N      0.122830000000     0.838540000000     0.092530000000    -0.166359   
N5       N      0.420640000000     0.871350000000     0.318930000000    -0.166576   
N6       N      0.340260000000     0.907680000000     0.275420000000    -0.166801   
N7       N      0.373680000000     0.835790000000     0.100400000000    -0.166352   
N8       N      0.331680000000     0.900790000000     0.044040000000    -0.164943   
N9       N      0.164850000000     0.635220000000     0.412830000000    -0.16617    
N10      N      0.085090000000     0.676770000000     0.452880000000    -0.166267   
N11      N      0.394700000000     0.692290000000     0.239570000000    -0.167064   
N12      N      0.310360000000     0.654990000000     0.276100000000    -0.165373   
N13      N      0.177060000000     0.653450000000     0.133190000000    -0.166449   
N14      N      0.112290000000     0.694490000000     0.189140000000    -0.164555   
N15      N      0.311100000000     0.659240000000     0.993250000000    -0.168086   
N16      N      0.386860000000     0.699000000000     0.446570000000    -0.165236   
N17      N      0.378050000000     0.473200000000     0.371920000000    -0.16701    
N18      N      0.434240000000     0.386980000000     0.383080000000    -0.166011   
N19      N      0.423210000000     0.162900000000     0.425620000000    -0.166185   
N20      N      0.377740000000     0.071170000000     0.437090000000    -0.166928   
N21      N      0.350350000000     0.452030000000     0.084590000000    -0.16599    
N22      N      0.433600000000     0.394340000000     0.101110000000    -0.16594    
N23      N      0.409720000000     0.165410000000     0.160450000000    -0.166377   
N24      N      0.324260000000     0.111660000000     0.178750000000    -0.166554   
N25      N      0.884320000000     0.986610000000     0.490760000000    -0.167445   
N26      N      0.937690000000     0.900920000000     0.003280000000    -0.165189   
N27      N      0.659330000000     0.930660000000     0.427290000000    -0.167038   
N28      N      0.616930000000     0.838180000000     0.411460000000    -0.166613   
N29      N      0.595990000000     0.179930000000     0.060820000000    -0.16552    
N30      N      0.672880000000     0.145000000000     0.013720000000    -0.165882   
N31      N      0.929240000000     0.881710000000     0.245790000000    -0.166706   
N32      N      0.884380000000     0.974250000000     0.238120000000    -0.167085   
N33      N      0.563320000000     0.901490000000     0.193970000000    -0.166744   
N34      N      0.655450000000     0.947540000000     0.194270000000    -0.166966   
N35      N      0.610970000000     0.186420000000     0.327890000000    -0.165834   
N36      N      0.688640000000     0.153150000000     0.280110000000    -0.167607   
N37      N      0.540120000000     0.627690000000     0.339290000000    -0.166585   
N38      N      0.624880000000     0.572370000000     0.325460000000    -0.165984   
N39      N      0.846400000000     0.603710000000     0.288600000000    -0.165517   
N40      N      0.939070000000     0.648580000000     0.287280000000    -0.166777   
N41      N      0.615920000000     0.341980000000     0.193140000000    -0.165544   
N42      N      0.697810000000     0.381270000000     0.233250000000    -0.167253   
N43      N      0.629520000000     0.587610000000     0.121970000000    -0.166294   
N44      N      0.590580000000     0.680120000000     0.140620000000    -0.166467   
N45      N      0.895270000000     0.695190000000     0.051820000000    -0.165627   
N46      N      0.850580000000     0.603780000000     0.061980000000    -0.166585   
N47      N      0.674640000000     0.401960000000     0.020040000000    -0.165193   
N48      N      0.634780000000     0.326910000000     0.471610000000    -0.166297   
N49      N      0.094020000000     0.358900000000     0.293490000000    -0.165624   
N50      N      0.144200000000     0.446540000000     0.312630000000    -0.166972   
N51      N      0.110320000000     0.047110000000     0.234160000000    -0.166849   
N52      N      0.066830000000     0.139730000000     0.243430000000    -0.16589    
N53      N      0.830940000000     0.132050000000     0.378890000000    -0.165266   
N54      N      0.874420000000     0.200920000000     0.327850000000    -0.166629   
N55      N      0.892040000000     0.347690000000     0.196510000000    -0.166264   
N56      N      0.846540000000     0.423740000000     0.153370000000    -0.165254   
N57      N      0.136160000000     0.452200000000     0.036680000000    -0.165234   
N58      N      0.053930000000     0.391070000000     0.021980000000    -0.166256   
N59      N      0.063400000000     0.147610000000     0.983900000000    -0.167447   
N60      N      0.147000000000     0.087310000000     0.476920000000    -0.166529   
N61      N      0.832370000000     0.137010000000     0.127860000000    -0.164732   
N62      N      0.871140000000     0.204520000000     0.072320000000    -0.164793   
N63      N      0.877540000000     0.332200000000     0.419540000000    -0.16621    
N64      N      0.837100000000     0.414900000000     0.381570000000    -0.16562    
N65      N      0.194420000000     0.880700000000     0.892220000000    -0.165563   
N66      N      0.120820000000     0.841140000000     0.842020000000    -0.165889   
N67      N      0.201520000000     0.874810000000     0.637250000000    -0.166792   
N68      N      0.122570000000     0.838820000000     0.592290000000    -0.166437   
N69      N      0.420140000000     0.871280000000     0.819060000000    -0.166608   
N70      N      0.339910000000     0.907800000000     0.775450000000    -0.166839   
N71      N      0.373290000000     0.835950000000     0.600720000000    -0.16648    
N72      N      0.331540000000     0.901000000000     0.544280000000    -0.164859   
N73      N      0.164600000000     0.635440000000     0.913280000000    -0.166171   
N74      N      0.084730000000     0.676850000000     0.953270000000    -0.165941   
N75      N      0.394400000000     0.692390000000     0.739880000000    -0.167072   
N76      N      0.310120000000     0.655060000000     0.776490000000    -0.165418   
N77      N      0.177150000000     0.653490000000     0.633020000000    -0.166452   
N78      N      0.112420000000     0.694630000000     0.688970000000    -0.164532   
N79      N      0.310970000000     0.659470000000     0.493340000000    -0.166535   
N80      N      0.387570000000     0.697830000000     0.946630000000    -0.164842   
N81      N      0.377500000000     0.473100000000     0.872330000000    -0.167009   
N82      N      0.433770000000     0.386930000000     0.883470000000    -0.165971   
N83      N      0.423460000000     0.162640000000     0.925760000000    -0.166244   
N84      N      0.378420000000     0.070670000000     0.937010000000    -0.167003   
N85      N      0.350410000000     0.451980000000     0.584470000000    -0.166044   
N86      N      0.433710000000     0.394360000000     0.600960000000    -0.165957   
N87      N      0.409670000000     0.165470000000     0.660370000000    -0.166335   
N88      N      0.324180000000     0.111760000000     0.678680000000    -0.166641   
N89      N      0.884320000000     0.986900000000     0.990470000000    -0.167883   
N90      N      0.936270000000     0.899640000000     0.502880000000    -0.165668   
N91      N      0.659040000000     0.930970000000     0.927280000000    -0.167083   
N92      N      0.616700000000     0.838490000000     0.911450000000    -0.166644   
N93      N      0.595950000000     0.179800000000     0.560770000000    -0.165448   
N94      N      0.672940000000     0.144860000000     0.513790000000    -0.167532   
N95      N      0.928850000000     0.881360000000     0.745760000000    -0.166655   
N96      N      0.883900000000     0.973880000000     0.738230000000    -0.167096   
N97      N      0.562760000000     0.901730000000     0.694530000000    -0.166748   
N98      N      0.654920000000     0.947700000000     0.694660000000    -0.166999   
N99      N      0.610990000000     0.186760000000     0.828260000000    -0.165882   
N100     N      0.688560000000     0.153270000000     0.780450000000    -0.16764    
N101     N      0.540470000000     0.628000000000     0.839200000000    -0.166489   
N102     N      0.625160000000     0.572620000000     0.825300000000    -0.165917   
N103     N      0.846570000000     0.603690000000     0.788340000000    -0.165476   
N104     N      0.939340000000     0.648310000000     0.787100000000    -0.166733   
N105     N      0.616030000000     0.341870000000     0.692990000000    -0.165536   
N106     N      0.697850000000     0.381190000000     0.733180000000    -0.1672     
N107     N      0.629790000000     0.588550000000     0.621420000000    -0.166215   
N108     N      0.590510000000     0.680750000000     0.640630000000    -0.166552   
N109     N      0.895960000000     0.694070000000     0.551230000000    -0.165467   
N110     N      0.851160000000     0.602710000000     0.561210000000    -0.166509   
N111     N      0.673040000000     0.402900000000     0.519340000000    -0.165829   
N112     N      0.634600000000     0.327130000000     0.971980000000    -0.166836   
N113     N      0.093470000000     0.359350000000     0.793430000000    -0.165644   
N114     N      0.143630000000     0.446930000000     0.812750000000    -0.167027   
N115     N      0.110190000000     0.047550000000     0.734060000000    -0.166905   
N116     N      0.066760000000     0.140210000000     0.743230000000    -0.165884   
N117     N      0.830910000000     0.132120000000     0.878750000000    -0.165314   
N118     N      0.874230000000     0.201000000000     0.827640000000    -0.166617   
N119     N      0.891680000000     0.347840000000     0.696110000000    -0.166288   
N120     N      0.845840000000     0.423530000000     0.652740000000    -0.16524    
N121     N      0.136300000000     0.451990000000     0.536670000000    -0.165835   
N122     N      0.054200000000     0.390620000000     0.521990000000    -0.166622   
N123     N      0.062070000000     0.146540000000     0.484150000000    -0.16704    
N124     N      0.148560000000     0.088670000000     0.976760000000    -0.166893   
N125     N      0.832350000000     0.136750000000     0.628230000000    -0.164714   
N126     N      0.871090000000     0.204410000000     0.572790000000    -0.164925   
N127     N      0.877760000000     0.332250000000     0.919150000000    -0.166284   
N128     N      0.837380000000     0.415020000000     0.881240000000    -0.165677   
O1       O      0.022410000000     0.331150000000     0.979830000000    -0.508659   
O2       O      0.006840000000     0.323650000000     0.041770000000    -0.489783   
O3       O      0.948810000000     0.288760000000     0.434900000000    -0.485846   
O4       O      0.010610000000     0.208070000000     0.459390000000    -0.495552   
O5       O      0.935020000000     0.258850000000     0.058690000000    -0.491164   
O6       O      0.026090000000     0.208180000000     0.021660000000    -0.51025    
O7       O      0.900590000000     0.306560000000     0.982450000000    -0.502389   
O8       O      0.909130000000     0.212800000000     0.010820000000    -0.498762   
O9       O      0.046900000000     0.315640000000     0.247500000000    -0.517079   
O10      O      0.029020000000     0.306820000000     0.309240000000    -0.497306   
O11      O      0.952950000000     0.288000000000     0.202820000000    -0.499531   
O12      O      0.015910000000     0.203340000000     0.221510000000    -0.49978    
O13      O      0.941990000000     0.252460000000     0.320930000000    -0.500454   
O14      O      0.034090000000     0.200170000000     0.283770000000    -0.51844    
O15      O      0.927310000000     0.322970000000     0.256130000000    -0.52039    
O16      O      0.919320000000     0.210090000000     0.269930000000    -0.513903   
O17      O      0.803090000000     0.559830000000     0.106240000000    -0.519484   
O18      O      0.789040000000     0.548490000000     0.044000000000    -0.493924   
O19      O      0.778290000000     0.474600000000     0.148690000000    -0.493092   
O20      O      0.692000000000     0.531930000000     0.136660000000    -0.496999   
O21      O      0.728660000000     0.467320000000     0.029500000000    -0.501324   
O22      O      0.684140000000     0.556220000000     0.076180000000    -0.521127   
O23      O      0.808080000000     0.446140000000     0.094310000000    -0.513691   
O24      O      0.696050000000     0.435030000000     0.081570000000    -0.52052    
O25      O      0.801470000000     0.536070000000     0.265980000000    -0.495891   
O26      O      0.791450000000     0.558840000000     0.326580000000    -0.515656   
O27      O      0.765080000000     0.457010000000     0.366380000000    -0.494914   
O28      O      0.686240000000     0.518200000000     0.345700000000    -0.499899   
O29      O      0.735690000000     0.457080000000     0.243680000000    -0.496069   
O30      O      0.685910000000     0.541740000000     0.284710000000    -0.513986   
O31      O      0.818240000000     0.448520000000     0.319820000000    -0.517244   
O32      O      0.711930000000     0.416630000000     0.295000000000    -0.515953   
O33      O      0.715610000000     0.987350000000     0.231180000000    -0.515446   
O34      O      0.702090000000     0.014060000000     0.172180000000    -0.497927   
O35      O      0.745440000000     0.090820000000     0.270100000000    -0.505338   
O36      O      0.815440000000     0.019510000000     0.255730000000    -0.490005   
O37      O      0.776140000000     0.076200000000     0.145580000000    -0.487852   
O38      O      0.828860000000     0.008550000000     0.193640000000    -0.508343   
O39      O      0.705510000000     0.116640000000     0.219150000000    -0.508145   
O40      O      0.810700000000     0.117500000000     0.192720000000    -0.513092   
O41      O      0.703560000000     0.979620000000     0.471470000000    -0.517553   
O42      O      0.710800000000     0.995300000000     0.409330000000    -0.50348    
O43      O      0.732850000000     0.084860000000     0.009910000000    -0.504891   
O44      O      0.806250000000     0.017190000000     0.003030000000    -0.49384    
O45      O      0.774830000000     0.069100000000     0.390570000000    -0.489592   
O46      O      0.827230000000     0.006610000000     0.442430000000    -0.517425   
O47      O      0.692850000000     0.101820000000     0.456440000000    -0.515807   
O48      O      0.799950000000     0.111780000000     0.440650000000    -0.516132   
O49      O      0.450830000000     0.213500000000     0.114300000000    -0.516632   
O50      O      0.468150000000     0.225430000000     0.175820000000    -0.495021   
O51      O      0.535570000000     0.239630000000     0.067870000000    -0.489059   
O52      O      0.480350000000     0.326360000000     0.083200000000    -0.494921   
O53      O      0.553410000000     0.283780000000     0.186640000000    -0.49365    
O54      O      0.461110000000     0.334080000000     0.144690000000    -0.518978   
O55      O      0.572080000000     0.213830000000     0.120800000000    -0.516737   
O56      O      0.574420000000     0.324340000000     0.134330000000    -0.516139   
O57      O      0.464740000000     0.215740000000     0.383240000000    -0.514536   
O58      O      0.485370000000     0.216980000000     0.444920000000    -0.495231   
O59      O      0.553930000000     0.248590000000     0.339400000000    -0.490971   
O60      O      0.491690000000     0.329490000000     0.361570000000    -0.496682   
O61      O      0.564320000000     0.279800000000     0.462080000000    -0.496135   
O62      O      0.472150000000     0.328500000000     0.423220000000    -0.510989   
O63      O      0.582980000000     0.209770000000     0.390080000000    -0.515555   
O64      O      0.593870000000     0.317430000000     0.411240000000    -0.512044   
O65      O      0.191700000000     0.513040000000     0.017200000000    -0.495913   
O66      O      0.185530000000     0.497610000000     0.079580000000    -0.513517   
O67      O      0.234650000000     0.592440000000     0.120770000000    -0.495244   
O68      O      0.293620000000     0.510980000000     0.104000000000    -0.497655   
O69      O      0.258650000000     0.592120000000     0.000870000000    -0.495563   
O70      O      0.302960000000     0.499140000000     0.041450000000    -0.511878   
O71      O      0.184670000000     0.611420000000     0.073390000000    -0.515645   
O72      O      0.297940000000     0.617450000000     0.052490000000    -0.512412   
O73      O      0.319380000000     0.502980000000     0.327890000000    -0.515942   
O74      O      0.307070000000     0.515270000000     0.389850000000    -0.494703   
O75      O      0.267260000000     0.581750000000     0.284190000000    -0.493488   
O76      O      0.203780000000     0.505070000000     0.297350000000    -0.495013   
O77      O      0.220620000000     0.571290000000     0.404830000000    -0.488083   
O78      O      0.194530000000     0.485760000000     0.358590000000    -0.514823   
O79      O      0.291960000000     0.619320000000     0.337080000000    -0.508768   
O80      O      0.195230000000     0.608860000000     0.352270000000    -0.505768   
O81      O      0.545000000000     0.724750000000     0.185950000000    -0.512826   
O82      O      0.528780000000     0.735650000000     0.124060000000    -0.498752   
O83      O      0.446540000000     0.759590000000     0.230030000000    -0.49203    
O84      O      0.521500000000     0.848910000000     0.151440000000    -0.516062   
O85      O      0.439910000000     0.783360000000     0.111020000000    -0.494666   
O86      O      0.524000000000     0.829190000000     0.213280000000    -0.499664   
O87      O      0.431610000000     0.712780000000     0.179950000000    -0.520077   
O88      O      0.417290000000     0.829080000000     0.159750000000    -0.516151   
O89      O      0.525030000000     0.685140000000     0.388380000000    -0.516697   
O90      O      0.511050000000     0.707070000000     0.328000000000    -0.491069   
O91      O      0.457540000000     0.746200000000     0.438690000000    -0.493517   
O92      O      0.544670000000     0.796050000000     0.426110000000    -0.495391   
O93      O      0.469940000000     0.801750000000     0.321200000000    -0.492969   
O94      O      0.566030000000     0.800590000000     0.365040000000    -0.516082   
O95      O      0.420240000000     0.721280000000     0.385700000000    -0.514682   
O96      O      0.442840000000     0.829500000000     0.376560000000    -0.511541   
O97      O      0.170080000000     0.021000000000     0.190420000000    -0.514467   
O98      O      0.185310000000     0.012930000000     0.252750000000    -0.499261   
O99      O      0.208570000000     0.913480000000     0.198540000000    -0.511425   
O100     O      0.281160000000     0.040330000000     0.162580000000    -0.497178   
O101     O      0.272440000000     0.959100000000     0.268570000000    -0.49535    
O102     O      0.287710000000     0.058850000000     0.224280000000    -0.513931   
O103     O      0.238420000000     0.950830000000     0.147580000000    -0.496094   
O104     O      0.312480000000     0.940780000000     0.215800000000    -0.519297   
O105     O      0.322400000000     0.035620000000     0.480570000000    -0.509809   
O106     O      0.311430000000     0.021940000000     0.418480000000    -0.489641   
O107     O      0.277080000000     0.963700000000     0.027460000000    -0.485421   
O108     O      0.200880000000     0.027590000000     0.001310000000    -0.492074   
O109     O      0.247170000000     0.946680000000     0.403290000000    -0.494787   
O110     O      0.203120000000     0.043610000000     0.439330000000    -0.511465   
O111     O      0.306020000000     0.920280000000     0.480070000000    -0.505651   
O112     O      0.205330000000     0.920380000000     0.453010000000    -0.506651   
O113     O      0.945090000000     0.736720000000     0.007460000000    -0.519662   
O114     O      0.968880000000     0.733410000000     0.068620000000    -0.501084   
O115     O      0.043510000000     0.750340000000     0.462900000000    -0.505484   
O116     O      0.989680000000     0.838050000000     0.482510000000    -0.501487   
O117     O      0.056920000000     0.785270000000     0.083290000000    -0.506795   
O118     O      0.967640000000     0.839270000000     0.044130000000    -0.520611   
O119     O      0.059500000000     0.705830000000     0.014630000000    -0.524823   
O120     O      0.084040000000     0.824050000000     0.032060000000    -0.523844   
O121     O      0.979520000000     0.703880000000     0.246620000000    -0.510975   
O122     O      0.985900000000     0.715150000000     0.309470000000    -0.491413   
O123     O      0.049770000000     0.749480000000     0.203900000000    -0.487819   
O124     O      0.991890000000     0.828890000000     0.226450000000    -0.495698   
O125     O      0.060530000000     0.782350000000     0.329030000000    -0.497137   
O126     O      0.963910000000     0.820940000000     0.285440000000    -0.515074   
O127     O      0.092890000000     0.721360000000     0.252740000000    -0.505691   
O128     O      0.089080000000     0.823280000000     0.279510000000    -0.511003   
O129     O      0.022620000000     0.330560000000     0.480000000000    -0.507833   
O130     O      0.006770000000     0.323520000000     0.541930000000    -0.490317   
O131     O      0.949050000000     0.288870000000     0.934570000000    -0.485536   
O132     O      0.011290000000     0.208600000000     0.959130000000    -0.495136   
O133     O      0.935070000000     0.258590000000     0.559090000000    -0.491842   
O134     O      0.025680000000     0.207720000000     0.521880000000    -0.512016   
O135     O      0.900420000000     0.306480000000     0.482830000000    -0.501865   
O136     O      0.908740000000     0.212860000000     0.511180000000    -0.499825   
O137     O      0.046520000000     0.316060000000     0.747350000000    -0.517058   
O138     O      0.028500000000     0.307170000000     0.809050000000    -0.49729    
O139     O      0.952570000000     0.288160000000     0.702510000000    -0.499624   
O140     O      0.015730000000     0.203710000000     0.721260000000    -0.4997     
O141     O      0.941650000000     0.252720000000     0.820650000000    -0.500521   
O142     O      0.033880000000     0.200600000000     0.783530000000    -0.518139   
O143     O      0.926970000000     0.323280000000     0.755770000000    -0.520436   
O144     O      0.919070000000     0.210250000000     0.769680000000    -0.51366    
O145     O      0.803190000000     0.559370000000     0.605500000000    -0.519423   
O146     O      0.789020000000     0.548070000000     0.543270000000    -0.494192   
O147     O      0.777810000000     0.474670000000     0.648020000000    -0.493274   
O148     O      0.691700000000     0.532180000000     0.635990000000    -0.496887   
O149     O      0.727880000000     0.467560000000     0.528810000000    -0.501913   
O150     O      0.684390000000     0.557100000000     0.575630000000    -0.52106    
O151     O      0.807220000000     0.445690000000     0.593680000000    -0.513787   
O152     O      0.695030000000     0.435540000000     0.580880000000    -0.520632   
O153     O      0.801570000000     0.536100000000     0.765710000000    -0.496016   
O154     O      0.791600000000     0.558860000000     0.826330000000    -0.515535   
O155     O      0.765310000000     0.457060000000     0.866110000000    -0.494997   
O156     O      0.686450000000     0.518330000000     0.845490000000    -0.499912   
O157     O      0.735770000000     0.457000000000     0.743500000000    -0.496677   
O158     O      0.686080000000     0.541850000000     0.784490000000    -0.513999   
O159     O      0.818420000000     0.448610000000     0.819510000000    -0.517277   
O160     O      0.711930000000     0.416720000000     0.794880000000    -0.516147   
O161     O      0.715280000000     0.987320000000     0.731490000000    -0.515582   
O162     O      0.701580000000     0.014200000000     0.672570000000    -0.498155   
O163     O      0.745180000000     0.090790000000     0.770440000000    -0.505349   
O164     O      0.815110000000     0.019280000000     0.755970000000    -0.489873   
O165     O      0.775790000000     0.076230000000     0.645920000000    -0.488016   
O166     O      0.828360000000     0.008330000000     0.693850000000    -0.508445   
O167     O      0.705340000000     0.116740000000     0.719490000000    -0.508171   
O168     O      0.810680000000     0.117230000000     0.693080000000    -0.513118   
O169     O      0.703480000000     0.979790000000     0.971420000000    -0.517954   
O170     O      0.710500000000     0.995590000000     0.909280000000    -0.503644   
O171     O      0.732890000000     0.084690000000     0.510000000000    -0.507111   
O172     O      0.806180000000     0.016810000000     0.503190000000    -0.495427   
O173     O      0.774820000000     0.069150000000     0.890460000000    -0.489442   
O174     O      0.826940000000     0.006460000000     0.942250000000    -0.516991   
O175     O      0.692760000000     0.101970000000     0.956360000000    -0.515205   
O176     O      0.799820000000     0.111960000000     0.940500000000    -0.516174   
O177     O      0.450800000000     0.213520000000     0.614200000000    -0.516755   
O178     O      0.468140000000     0.225460000000     0.675720000000    -0.494948   
O179     O      0.535640000000     0.239620000000     0.567770000000    -0.4892     
O180     O      0.480380000000     0.326320000000     0.583070000000    -0.495264   
O181     O      0.553390000000     0.283800000000     0.686540000000    -0.493558   
O182     O      0.461210000000     0.334130000000     0.644570000000    -0.518898   
O183     O      0.571980000000     0.213680000000     0.620740000000    -0.516713   
O184     O      0.574560000000     0.324180000000     0.634180000000    -0.516265   
O185     O      0.464760000000     0.215800000000     0.883500000000    -0.514547   
O186     O      0.485360000000     0.216950000000     0.945190000000    -0.495557   
O187     O      0.553890000000     0.248880000000     0.839760000000    -0.490784   
O188     O      0.491420000000     0.329630000000     0.861950000000    -0.49656    
O189     O      0.564140000000     0.280030000000     0.962450000000    -0.49664    
O190     O      0.471800000000     0.328500000000     0.923590000000    -0.511097   
O191     O      0.582970000000     0.210080000000     0.890440000000    -0.515486   
O192     O      0.593600000000     0.317780000000     0.911640000000    -0.512089   
O193     O      0.191860000000     0.512780000000     0.517110000000    -0.496465   
O194     O      0.185510000000     0.497640000000     0.579520000000    -0.513571   
O195     O      0.234670000000     0.592390000000     0.620660000000    -0.495125   
O196     O      0.293680000000     0.510930000000     0.603880000000    -0.497896   
O197     O      0.258580000000     0.592270000000     0.500830000000    -0.49598    
O198     O      0.302980000000     0.499060000000     0.541330000000    -0.512047   
O199     O      0.184730000000     0.611390000000     0.573250000000    -0.515534   
O200     O      0.298130000000     0.617260000000     0.552430000000    -0.512207   
O201     O      0.318920000000     0.503040000000     0.828280000000    -0.516102   
O202     O      0.306540000000     0.515240000000     0.890230000000    -0.494961   
O203     O      0.266910000000     0.581880000000     0.784560000000    -0.493374   
O204     O      0.203350000000     0.505380000000     0.797620000000    -0.495114   
O205     O      0.220190000000     0.571360000000     0.905220000000    -0.487958   
O206     O      0.193950000000     0.485970000000     0.858810000000    -0.514891   
O207     O      0.291660000000     0.619390000000     0.837450000000    -0.50894    
O208     O      0.194970000000     0.609120000000     0.852690000000    -0.505645   
O209     O      0.544580000000     0.724790000000     0.686100000000    -0.512797   
O210     O      0.528660000000     0.736300000000     0.624240000000    -0.499018   
O211     O      0.446230000000     0.759700000000     0.730350000000    -0.491905   
O212     O      0.520870000000     0.849300000000     0.651920000000    -0.516016   
O213     O      0.439460000000     0.783460000000     0.611360000000    -0.494738   
O214     O      0.523700000000     0.829210000000     0.713670000000    -0.499642   
O215     O      0.431250000000     0.712940000000     0.680250000000    -0.519987   
O216     O      0.416940000000     0.829280000000     0.660050000000    -0.516046   
O217     O      0.525300000000     0.685390000000     0.888320000000    -0.516815   
O218     O      0.511080000000     0.707290000000     0.827970000000    -0.490996   
O219     O      0.457550000000     0.746090000000     0.938740000000    -0.493612   
O220     O      0.544490000000     0.796280000000     0.926120000000    -0.495714   
O221     O      0.469680000000     0.801870000000     0.821280000000    -0.493014   
O222     O      0.565830000000     0.800830000000     0.865050000000    -0.51625    
O223     O      0.420520000000     0.720720000000     0.885770000000    -0.514904   
O224     O      0.442380000000     0.829360000000     0.876660000000    -0.511543   
O225     O      0.169900000000     0.021270000000     0.690350000000    -0.514533   
O226     O      0.185130000000     0.013290000000     0.752680000000    -0.499422   
O227     O      0.208290000000     0.913700000000     0.698430000000    -0.511243   
O228     O      0.281040000000     0.040460000000     0.662540000000    -0.497371   
O229     O      0.272080000000     0.959200000000     0.768540000000    -0.495405   
O230     O      0.287550000000     0.059030000000     0.724220000000    -0.514021   
O231     O      0.238140000000     0.951120000000     0.647510000000    -0.496127   
O232     O      0.312260000000     0.940990000000     0.715820000000    -0.519309   
O233     O      0.322950000000     0.035270000000     0.980460000000    -0.51011    
O234     O      0.311950000000     0.021680000000     0.918360000000    -0.489486   
O235     O      0.276980000000     0.963910000000     0.527630000000    -0.485776   
O236     O      0.200280000000     0.027100000000     0.501490000000    -0.493893   
O237     O      0.247140000000     0.946810000000     0.903130000000    -0.494911   
O238     O      0.203980000000     0.044110000000     0.939170000000    -0.511309   
O239     O      0.306230000000     0.920220000000     0.979840000000    -0.506985   
O240     O      0.205260000000     0.920660000000     0.952890000000    -0.50679    
O241     O      0.945540000000     0.736050000000     0.506980000000    -0.519818   
O242     O      0.969340000000     0.732680000000     0.568150000000    -0.500504   
O243     O      0.043190000000     0.750440000000     0.963280000000    -0.505804   
O244     O      0.989930000000     0.838380000000     0.982810000000    -0.503139   
O245     O      0.056900000000     0.785280000000     0.582960000000    -0.506754   
O246     O      0.966950000000     0.838350000000     0.543720000000    -0.520355   
O247     O      0.059880000000     0.705730000000     0.514240000000    -0.525852   
O248     O      0.083930000000     0.824210000000     0.531770000000    -0.524084   
O249     O      0.979640000000     0.703720000000     0.746450000000    -0.511038   
O250     O      0.986060000000     0.714950000000     0.809310000000    -0.49137    
O251     O      0.049820000000     0.749530000000     0.703740000000    -0.487997   
O252     O      0.991650000000     0.828760000000     0.726350000000    -0.495652   
O253     O      0.060450000000     0.782360000000     0.828890000000    -0.496978   
O254     O      0.963740000000     0.820650000000     0.785350000000    -0.515117   
O255     O      0.092970000000     0.721440000000     0.752570000000    -0.505707   
O256     O      0.088900000000     0.823380000000     0.779370000000    -0.511001   


