data_structure

_audit_creation_method RASPA-1.0
_audit_creation_date 2023-5-22
_audit_author_name 'Poobodin Mano'

_cell_length_a    49.9542
_cell_length_b    47.6287
_cell_length_c    23.5543
_cell_angle_alpha 89.9971
_cell_angle_beta  89.5985
_cell_angle_gamma 119.999
_cell_volume      48532.4

_symmetry_cell_setting          triclinic
_symmetry_space_group_name_Hall 'P 1'
_symmetry_space_group_name_H-M  'P 1'
_symmetry_Int_Tables_number     1

_symmetry_equiv_pos_as_xyz 'x,y,z'

loop_
_atom_site_label
_atom_site_type_symbol
_atom_site_fract_x
_atom_site_fract_y
_atom_site_fract_z
_atom_site_charge
C1       C      0.323570000000     0.296920000000     0.291930000000     0.404461   
C2       C      0.412620000000     0.316500000000     0.351690000000     0.405045   
C3       C      0.322390000000     0.221700000000     0.397570000000     0.407343   
C4       C      0.368890000000     0.238660000000     0.233790000000     0.407506   
C5       C      0.293410000000     0.458960000000     0.130420000000     0.406656   
C6       C      0.282140000000     0.369840000000     0.194510000000     0.410329   
C7       C      0.211920000000     0.398580000000     0.242690000000     0.408344   
C8       C      0.209930000000     0.365150000000     0.076060000000     0.408859   
C9       C      0.432780000000     0.159260000000     0.929470000000     0.404891   
C10      C      0.348240000000     0.075920000000     0.027100000000     0.402069   
C11      C      0.391730000000     0.181410000000     0.059560000000     0.404739   
C12      C      0.333350000000     0.127240000000     0.902280000000     0.407001   
C13      C      0.053320000000     0.223670000000     0.861710000000     0.403442   
C14      C      0.135100000000     0.218640000000     0.768820000000     0.407338   
C15      C      0.104460000000     0.285150000000     0.724740000000     0.405642   
C16      C      0.148670000000     0.287980000000     0.898920000000     0.40379    
C17      C      0.190390000000     0.148920000000     0.714670000000     0.403246   
C18      C      0.180450000000     0.058380000000     0.618450000000     0.400982   
C19      C      0.250820000000     0.157820000000     0.578260000000     0.410442   
C20      C      0.246180000000     0.105690000000     0.748130000000     0.404989   
C21      C      0.118430000000     0.447730000000     0.498830000000     0.413644   
C22      C      0.027160000000     0.363790000000     0.430860000000     0.405879   
C23      C      0.119550000000     0.379710000000     0.385490000000     0.403665   
C24      C      0.078930000000     0.346330000000     0.559050000000     0.408403   
C25      C      0.168980000000     0.994150000000     0.525140000000    -0.00879266 
C26      C      0.122070000000     0.500310000000     0.523000000000    -0.0103837  
C27      C      0.175620000000     0.006880000000     0.585740000000    -0.0113704  
C28      C      0.129740000000     0.015450000000     0.582580000000    -0.0117876  
C29      C      0.144330000000     0.148260000000     0.756240000000    -0.0112399  
C30      C      0.195860000000     0.199570000000     0.754390000000    -0.0106283  
C31      C      0.128960000000     0.166810000000     0.733030000000    -0.0109879  
C32      C      0.180810000000     0.217950000000     0.729780000000    -0.0107958  
C33      C      0.084350000000     0.341060000000     0.662160000000    -0.0100928  
C34      C      0.067290000000     0.293050000000     0.598500000000    -0.0101867  
C35      C      0.109980000000     0.335970000000     0.685900000000    -0.0101077  
C36      C      0.092110000000     0.286790000000     0.623490000000    -0.011001   
C37      C      0.479570000000     0.155460000000     0.907930000000    -0.0114569  
C38      C      0.472810000000     0.199930000000     0.865650000000    -0.0105553  
C39      C      0.013190000000     0.180290000000     0.922440000000    -0.0111783  
C40      C      0.005530000000     0.224940000000     0.883210000000    -0.010899   
C41      C      0.255920000000     0.102990000000     0.850510000000    -0.0111658  
C42      C      0.286100000000     0.092470000000     0.777000000000    -0.00984835 
C43      C      0.285990000000     0.128750000000     0.878010000000    -0.0110193  
C44      C      0.316430000000     0.118480000000     0.802560000000    -0.0106367  
C45      C      0.153430000000     0.359220000000     0.350210000000    -0.0108975  
C46      C      0.141690000000     0.394650000000     0.288560000000    -0.010279   
C47      C      0.188020000000     0.381140000000     0.338070000000    -0.0107494  
C48      C      0.176180000000     0.416820000000     0.276740000000    -0.0103133  
C49      C      0.312520000000     0.039040000000     0.100490000000    -0.0103975  
C50      C      0.333600000000     0.018060000000     0.023600000000    -0.0113169  
C51      C      0.317220000000     0.018110000000     0.143870000000    -0.0102761  
C52      C      0.336880000000     0.496380000000     0.067750000000    -0.00999307 
C53      C      0.164190000000     0.292020000000     0.999440000000    -0.0118907  
C54      C      0.194050000000     0.338690000000     0.932040000000    -0.0110115  
C55      C      0.163510000000     0.315410000000     0.043140000000    -0.00950883 
C56      C      0.193550000000     0.362030000000     0.976140000000    -0.0105779  
C57      C      0.254170000000     0.180090000000     0.481800000000    -0.0107283  
C58      C      0.301940000000     0.199330000000     0.541220000000    -0.0103046  
C59      C      0.271610000000     0.177040000000     0.430620000000    -0.0111827  
C60      C      0.318890000000     0.195480000000     0.490150000000    -0.0109881  
C61      C      0.991240000000     0.344430000000     0.350300000000    -0.0104498  
C62      C      0.971790000000     0.342960000000     0.450980000000    -0.0110635  
C63      C      0.967790000000     0.353560000000     0.328910000000    -0.0105299  
C64      C      0.448080000000     0.351210000000     0.427150000000    -0.0101522  
C65      C      0.284700000000     0.298800000000     0.230140000000    -0.0104253  
C66      C      0.312160000000     0.341590000000     0.304110000000    -0.0115436  
C67      C      0.293400000000     0.325070000000     0.185030000000    -0.0102792  
C68      C      0.320110000000     0.368010000000     0.259320000000    -0.00990365 
C69      C      0.406670000000     0.200110000000     0.158540000000    -0.0102422  
C70      C      0.394190000000     0.232150000000     0.091060000000    -0.00960237 
C71      C      0.381910000000     0.197680000000     0.200320000000    -0.0107774  
C72      C      0.368810000000     0.229680000000     0.130750000000    -0.0101292  
C73      C      0.323550000000     0.796880000000     0.291950000000     0.404499   
C74      C      0.412610000000     0.816500000000     0.351720000000     0.405019   
C75      C      0.322390000000     0.721660000000     0.397520000000     0.407319   
C76      C      0.368930000000     0.738670000000     0.233770000000     0.40724    
C77      C      0.293400000000     0.958920000000     0.130460000000     0.406631   
C78      C      0.282120000000     0.869800000000     0.194550000000     0.409962   
C79      C      0.211890000000     0.898550000000     0.242690000000     0.408672   
C80      C      0.209930000000     0.865120000000     0.076060000000     0.409027   
C81      C      0.432800000000     0.659290000000     0.929420000000     0.40448    
C82      C      0.348250000000     0.575950000000     0.027050000000     0.402089   
C83      C      0.391770000000     0.681440000000     0.059530000000     0.404931   
C84      C      0.333380000000     0.627280000000     0.902240000000     0.407111   
C85      C      0.053340000000     0.723690000000     0.861670000000     0.404024   
C86      C      0.135110000000     0.718650000000     0.768750000000     0.407339   
C87      C      0.104480000000     0.785170000000     0.724700000000     0.405261   
C88      C      0.148690000000     0.787980000000     0.898890000000     0.40396    
C89      C      0.190400000000     0.648920000000     0.714630000000     0.403283   
C90      C      0.180440000000     0.558360000000     0.618490000000     0.400579   
C91      C      0.250820000000     0.657780000000     0.578200000000     0.410413   
C92      C      0.246190000000     0.605710000000     0.748110000000     0.40519    
C93      C      0.118410000000     0.947760000000     0.498780000000     0.413573   
C94      C      0.027160000000     0.863820000000     0.430860000000     0.405946   
C95      C      0.119530000000     0.879700000000     0.385480000000     0.403564   
C96      C      0.078960000000     0.846380000000     0.559050000000     0.408543   
C97      C      0.168990000000     0.494070000000     0.525350000000    -0.008862   
C98      C      0.122020000000     0.000320000000     0.523060000000    -0.0104678  
C99      C      0.175570000000     0.506810000000     0.585940000000    -0.011373   
C100     C      0.129740000000     0.515450000000     0.582520000000    -0.0117806  
C101     C      0.144340000000     0.648270000000     0.756210000000    -0.0112512  
C102     C      0.195870000000     0.699580000000     0.754300000000    -0.0105874  
C103     C      0.128960000000     0.666810000000     0.732990000000    -0.0110284  
C104     C      0.180820000000     0.717950000000     0.729680000000    -0.0108432  
C105     C      0.084430000000     0.841130000000     0.662150000000    -0.0102164  
C106     C      0.067290000000     0.793100000000     0.598520000000    -0.0101125  
C107     C      0.110060000000     0.836000000000     0.685840000000    -0.00999221 
C108     C      0.092110000000     0.786810000000     0.623470000000    -0.0110428  
C109     C      0.479590000000     0.655490000000     0.907870000000    -0.01141    
C110     C      0.472830000000     0.699960000000     0.865610000000    -0.0105065  
C111     C      0.013210000000     0.680310000000     0.922390000000    -0.0112022  
C112     C      0.005560000000     0.724970000000     0.883180000000    -0.0109821  
C113     C      0.255950000000     0.603040000000     0.850490000000    -0.0111955  
C114     C      0.286110000000     0.592490000000     0.776990000000    -0.00972769 
C115     C      0.286020000000     0.628800000000     0.877970000000    -0.0110178  
C116     C      0.316450000000     0.618510000000     0.802520000000    -0.0107451  
C117     C      0.153400000000     0.859190000000     0.350210000000    -0.0110297  
C118     C      0.141650000000     0.894610000000     0.288530000000    -0.0102472  
C119     C      0.187980000000     0.881110000000     0.338060000000    -0.0106335  
C120     C      0.176140000000     0.916780000000     0.276700000000    -0.0103035  
C121     C      0.312530000000     0.539070000000     0.100430000000    -0.0103423  
C122     C      0.333610000000     0.518090000000     0.023560000000    -0.0112985  
C123     C      0.317220000000     0.518140000000     0.143820000000    -0.0103094  
C124     C      0.336870000000     0.996340000000     0.067780000000    -0.0100489  
C125     C      0.164210000000     0.792000000000     0.999410000000    -0.0118868  
C126     C      0.194060000000     0.838680000000     0.932020000000    -0.010951   
C127     C      0.163520000000     0.815380000000     0.043110000000    -0.00953303 
C128     C      0.193560000000     0.862020000000     0.976140000000    -0.0105922  
C129     C      0.254180000000     0.680030000000     0.481720000000    -0.0106917  
C130     C      0.301950000000     0.699270000000     0.541160000000    -0.0104743  
C131     C      0.271620000000     0.676980000000     0.430550000000    -0.0111816  
C132     C      0.318900000000     0.695430000000     0.490080000000    -0.010865   
C133     C      0.991240000000     0.844490000000     0.350290000000    -0.0105148  
C134     C      0.971790000000     0.842930000000     0.451000000000    -0.0109828  
C135     C      0.967770000000     0.853610000000     0.328970000000    -0.0104765  
C136     C      0.448050000000     0.851180000000     0.427230000000    -0.0102296  
C137     C      0.284680000000     0.798760000000     0.230160000000    -0.0104081  
C138     C      0.312120000000     0.841530000000     0.304160000000    -0.0115245  
C139     C      0.293380000000     0.825040000000     0.185060000000    -0.0102787  
C140     C      0.320080000000     0.867960000000     0.259380000000    -0.00993756 
C141     C      0.406720000000     0.700140000000     0.158500000000    -0.010247   
C142     C      0.394240000000     0.732190000000     0.091030000000    -0.00972374 
C143     C      0.381960000000     0.697710000000     0.200280000000    -0.010767   
C144     C      0.368870000000     0.729720000000     0.130720000000    -0.0100652  
C145     C      0.823570000000     0.296920000000     0.291930000000     0.404463   
C146     C      0.912620000000     0.316500000000     0.351690000000     0.405045   
C147     C      0.822390000000     0.221700000000     0.397570000000     0.407345   
C148     C      0.868890000000     0.238660000000     0.233790000000     0.407508   
C149     C      0.793410000000     0.458960000000     0.130420000000     0.406659   
C150     C      0.782140000000     0.369840000000     0.194510000000     0.41033    
C151     C      0.711920000000     0.398580000000     0.242690000000     0.408346   
C152     C      0.709930000000     0.365150000000     0.076060000000     0.40886    
C153     C      0.932780000000     0.159260000000     0.929470000000     0.404907   
C154     C      0.848240000000     0.075920000000     0.027100000000     0.40207    
C155     C      0.891730000000     0.181410000000     0.059560000000     0.404742   
C156     C      0.833350000000     0.127240000000     0.902280000000     0.407002   
C157     C      0.553320000000     0.223670000000     0.861710000000     0.403569   
C158     C      0.635100000000     0.218640000000     0.768820000000     0.407181   
C159     C      0.604460000000     0.285150000000     0.724740000000     0.405564   
C160     C      0.648670000000     0.287980000000     0.898920000000     0.403787   
C161     C      0.690390000000     0.148920000000     0.714670000000     0.403246   
C162     C      0.680450000000     0.058380000000     0.618450000000     0.400982   
C163     C      0.750820000000     0.157820000000     0.578260000000     0.410441   
C164     C      0.746180000000     0.105690000000     0.748130000000     0.404989   
C165     C      0.618430000000     0.447730000000     0.498830000000     0.413648   
C166     C      0.527160000000     0.363790000000     0.430860000000     0.406016   
C167     C      0.619550000000     0.379710000000     0.385490000000     0.403666   
C168     C      0.578930000000     0.346330000000     0.559050000000     0.408407   
C169     C      0.668980000000     0.994150000000     0.525140000000    -0.00878737 
C170     C      0.622070000000     0.500310000000     0.523000000000    -0.0103679  
C171     C      0.675620000000     0.006880000000     0.585740000000    -0.0113768  
C172     C      0.629740000000     0.015450000000     0.582580000000    -0.0118449  
C173     C      0.644330000000     0.148260000000     0.756240000000    -0.0112385  
C174     C      0.695860000000     0.199570000000     0.754390000000    -0.0106261  
C175     C      0.628960000000     0.166810000000     0.733030000000    -0.0110021  
C176     C      0.680810000000     0.217950000000     0.729780000000    -0.0108023  
C177     C      0.584350000000     0.341060000000     0.662160000000    -0.0100875  
C178     C      0.567280000000     0.293050000000     0.598500000000    -0.0102035  
C179     C      0.609980000000     0.335970000000     0.685900000000    -0.0101396  
C180     C      0.592110000000     0.286790000000     0.623490000000    -0.0110031  
C181     C      0.979570000000     0.155460000000     0.907930000000    -0.0112752  
C182     C      0.972810000000     0.199930000000     0.865650000000    -0.0104167  
C183     C      0.513190000000     0.180290000000     0.922440000000    -0.0109748  
C184     C      0.505530000000     0.224940000000     0.883210000000    -0.0107893  
C185     C      0.755920000000     0.102990000000     0.850510000000    -0.0111663  
C186     C      0.786100000000     0.092470000000     0.777000000000    -0.00984815 
C187     C      0.785990000000     0.128750000000     0.878010000000    -0.0110195  
C188     C      0.816430000000     0.118480000000     0.802560000000    -0.0106377  
C189     C      0.653430000000     0.359220000000     0.350210000000    -0.0109011  
C190     C      0.641680000000     0.394650000000     0.288560000000    -0.0103549  
C191     C      0.688020000000     0.381140000000     0.338070000000    -0.0107464  
C192     C      0.676180000000     0.416820000000     0.276740000000    -0.0102848  
C193     C      0.812520000000     0.039040000000     0.100490000000    -0.0103969  
C194     C      0.833600000000     0.018060000000     0.023600000000    -0.0113165  
C195     C      0.817220000000     0.018110000000     0.143870000000    -0.0102772  
C196     C      0.836880000000     0.496380000000     0.067750000000    -0.00996589 
C197     C      0.664190000000     0.292020000000     0.999440000000    -0.0118934  
C198     C      0.694050000000     0.338690000000     0.932040000000    -0.0110118  
C199     C      0.663510000000     0.315410000000     0.043140000000    -0.00950954 
C200     C      0.693550000000     0.362030000000     0.976140000000    -0.0105785  
C201     C      0.754170000000     0.180090000000     0.481800000000    -0.01073    
C202     C      0.801940000000     0.199330000000     0.541220000000    -0.0103187  
C203     C      0.771610000000     0.177040000000     0.430620000000    -0.0111818  
C204     C      0.818890000000     0.195480000000     0.490150000000    -0.010944   
C205     C      0.491240000000     0.344430000000     0.350300000000    -0.0106676  
C206     C      0.471790000000     0.342960000000     0.450980000000    -0.0110661  
C207     C      0.467790000000     0.353560000000     0.328910000000    -0.0104668  
C208     C      0.948080000000     0.351210000000     0.427150000000    -0.0101555  
C209     C      0.784700000000     0.298800000000     0.230140000000    -0.0104306  
C210     C      0.812150000000     0.341590000000     0.304110000000    -0.0115301  
C211     C      0.793400000000     0.325070000000     0.185030000000    -0.0102777  
C212     C      0.820110000000     0.368010000000     0.259320000000    -0.00991352 
C213     C      0.906670000000     0.200110000000     0.158540000000    -0.0102442  
C214     C      0.894190000000     0.232150000000     0.091060000000    -0.00960406 
C215     C      0.881910000000     0.197680000000     0.200320000000    -0.0107759  
C216     C      0.868810000000     0.229680000000     0.130750000000    -0.0101279  
C217     C      0.823550000000     0.796880000000     0.291950000000     0.404504   
C218     C      0.912610000000     0.816500000000     0.351720000000     0.405113   
C219     C      0.822390000000     0.721660000000     0.397520000000     0.407326   
C220     C      0.868930000000     0.738670000000     0.233770000000     0.407245   
C221     C      0.793400000000     0.958920000000     0.130460000000     0.406632   
C222     C      0.782120000000     0.869800000000     0.194550000000     0.409963   
C223     C      0.711890000000     0.898550000000     0.242690000000     0.408672   
C224     C      0.709930000000     0.865120000000     0.076060000000     0.409028   
C225     C      0.932800000000     0.659290000000     0.929420000000     0.404496   
C226     C      0.848250000000     0.575950000000     0.027050000000     0.40209    
C227     C      0.891770000000     0.681440000000     0.059530000000     0.404934   
C228     C      0.833380000000     0.627280000000     0.902240000000     0.407112   
C229     C      0.553340000000     0.723690000000     0.861670000000     0.40404    
C230     C      0.635110000000     0.718650000000     0.768750000000     0.407339   
C231     C      0.604480000000     0.785170000000     0.724700000000     0.405264   
C232     C      0.648690000000     0.787980000000     0.898890000000     0.403961   
C233     C      0.690400000000     0.648920000000     0.714630000000     0.403283   
C234     C      0.680430000000     0.558360000000     0.618490000000     0.400561   
C235     C      0.750820000000     0.657780000000     0.578200000000     0.410408   
C236     C      0.746190000000     0.605710000000     0.748110000000     0.405193   
C237     C      0.618410000000     0.947760000000     0.498780000000     0.413574   
C238     C      0.527160000000     0.863820000000     0.430860000000     0.40608    
C239     C      0.619530000000     0.879700000000     0.385480000000     0.403563   
C240     C      0.578960000000     0.846380000000     0.559050000000     0.408524   
C241     C      0.668980000000     0.494070000000     0.525350000000    -0.00871656 
C242     C      0.622030000000     0.000320000000     0.523060000000    -0.0103339  
C243     C      0.675570000000     0.506810000000     0.585940000000    -0.0114278  
C244     C      0.629740000000     0.515450000000     0.582520000000    -0.0117995  
C245     C      0.644340000000     0.648270000000     0.756210000000    -0.0112511  
C246     C      0.695870000000     0.699580000000     0.754300000000    -0.0105876  
C247     C      0.628960000000     0.666810000000     0.732990000000    -0.0110296  
C248     C      0.680820000000     0.717950000000     0.729680000000    -0.0108434  
C249     C      0.584430000000     0.841130000000     0.662150000000    -0.01022    
C250     C      0.567290000000     0.793100000000     0.598520000000    -0.0101156  
C251     C      0.610050000000     0.836000000000     0.685840000000    -0.00997836 
C252     C      0.592110000000     0.786810000000     0.623470000000    -0.0110382  
C253     C      0.979590000000     0.655490000000     0.907870000000    -0.0112605  
C254     C      0.972830000000     0.699960000000     0.865610000000    -0.0103541  
C255     C      0.513210000000     0.680310000000     0.922390000000    -0.0110478  
C256     C      0.505560000000     0.724970000000     0.883180000000    -0.010825   
C257     C      0.755950000000     0.603040000000     0.850490000000    -0.0111484  
C258     C      0.786110000000     0.592490000000     0.776990000000    -0.00972612 
C259     C      0.786020000000     0.628800000000     0.877970000000    -0.0110334  
C260     C      0.816450000000     0.618510000000     0.802520000000    -0.0107474  
C261     C      0.653390000000     0.859190000000     0.350210000000    -0.0109418  
C262     C      0.641650000000     0.894610000000     0.288530000000    -0.0102468  
C263     C      0.687980000000     0.881110000000     0.338060000000    -0.0106741  
C264     C      0.676140000000     0.916780000000     0.276700000000    -0.0103056  
C265     C      0.812530000000     0.539070000000     0.100430000000    -0.0103423  
C266     C      0.833610000000     0.518090000000     0.023560000000    -0.0113058  
C267     C      0.817220000000     0.518140000000     0.143820000000    -0.0103096  
C268     C      0.836870000000     0.996340000000     0.067780000000    -0.0100496  
C269     C      0.664210000000     0.792000000000     0.999410000000    -0.0118873  
C270     C      0.694060000000     0.838680000000     0.932020000000    -0.0109506  
C271     C      0.663520000000     0.815380000000     0.043110000000    -0.00953383 
C272     C      0.693560000000     0.862020000000     0.976140000000    -0.0105932  
C273     C      0.754170000000     0.680030000000     0.481720000000    -0.0108165  
C274     C      0.801950000000     0.699270000000     0.541160000000    -0.0104785  
C275     C      0.771620000000     0.676980000000     0.430550000000    -0.0111323  
C276     C      0.818900000000     0.695430000000     0.490080000000    -0.0108612  
C277     C      0.491240000000     0.844490000000     0.350290000000    -0.0107026  
C278     C      0.471790000000     0.842930000000     0.451000000000    -0.0109824  
C279     C      0.467770000000     0.853610000000     0.328970000000    -0.0104224  
C280     C      0.948050000000     0.851180000000     0.427230000000    -0.0102277  
C281     C      0.784680000000     0.798760000000     0.230160000000    -0.010408   
C282     C      0.812110000000     0.841530000000     0.304160000000    -0.0115554  
C283     C      0.793380000000     0.825040000000     0.185060000000    -0.0102783  
C284     C      0.820080000000     0.867960000000     0.259380000000    -0.00992445 
C285     C      0.906720000000     0.700140000000     0.158500000000    -0.0102451  
C286     C      0.894240000000     0.732190000000     0.091030000000    -0.00972493 
C287     C      0.881960000000     0.697710000000     0.200280000000    -0.0107825  
C288     C      0.868870000000     0.729720000000     0.130720000000    -0.0100639  
H1       H      0.132180000000     0.020330000000     0.491310000000     0.040452   
H2       H      0.181920000000     0.014960000000     0.495600000000     0.0401692  
H3       H      0.200960000000     0.019150000000     0.592930000000     0.0496796  
H4       H      0.096590000000     0.486960000000     0.517320000000     0.047602   
H5       H      0.122970000000     0.034370000000     0.585510000000     0.0493721  
H6       H      0.115530000000     0.496160000000     0.613960000000     0.0421152  
H7       H      0.177650000000     0.476850000000     0.519090000000     0.0482829  
H8       H      0.164270000000     0.985880000000     0.615390000000     0.0431082  
H9       H      0.196570000000     0.202220000000     0.801350000000     0.0414943  
H10      H      0.142360000000     0.147620000000     0.803330000000     0.0419637  
H11      H      0.105130000000     0.155940000000     0.750780000000     0.0491204  
H12      H      0.220070000000     0.210800000000     0.738540000000     0.0488334  
H13      H      0.193790000000     0.243550000000     0.744230000000     0.0485238  
H14      H      0.182770000000     0.217960000000     0.682720000000     0.0413455  
H15      H      0.131570000000     0.122850000000     0.740740000000     0.0501865  
H16      H      0.127130000000     0.163710000000     0.686170000000     0.0420145  
H17      H      0.045420000000     0.278150000000     0.622670000000     0.0407956  
H18      H      0.063620000000     0.327970000000     0.690060000000     0.0419809  
H19      H      0.114320000000     0.344390000000     0.730660000000     0.0506045  
H20      H      0.063160000000     0.284940000000     0.553560000000     0.0487292  
H21      H      0.083220000000     0.260230000000     0.624510000000     0.0480561  
H22      H      0.112600000000     0.297970000000     0.594690000000     0.0424338  
H23      H      0.091820000000     0.367290000000     0.663490000000     0.0485779  
H24      H      0.131500000000     0.351270000000     0.661050000000     0.0425876  
H25      H      0.473660000000     0.192400000000     0.821290000000     0.0418451  
H26      H      0.479510000000     0.144400000000     0.866330000000     0.0420655  
H27      H      0.027600000000     0.168610000000     0.918130000000     0.049536   
H28      H      0.458180000000     0.211440000000     0.866260000000     0.0493697  
H29      H      0.014890000000     0.245530000000     0.852620000000     0.0482887  
H30      H      0.004390000000     0.234420000000     0.925780000000     0.0409539  
H31      H      0.470200000000     0.135830000000     0.940410000000     0.0489623  
H32      H      0.013900000000     0.187360000000     0.967630000000     0.0410997  
H33      H      0.280080000000     0.068790000000     0.796710000000     0.0402679  
H34      H      0.248440000000     0.079420000000     0.872130000000     0.0398713  
H35      H      0.282360000000     0.128280000000     0.924710000000     0.0483888  
H36      H      0.289300000000     0.090690000000     0.730650000000     0.0505283  
H37      H      0.334270000000     0.111290000000     0.796340000000     0.0491841  
H38      H      0.324160000000     0.141520000000     0.778890000000     0.0442282  
H39      H      0.237620000000     0.109470000000     0.857210000000     0.0477142  
H40      H      0.291240000000     0.152960000000     0.862040000000     0.0429534  
H41      H      0.132000000000     0.376360000000     0.254070000000     0.0414723  
H42      H      0.144120000000     0.339020000000     0.319090000000     0.0415265  
H43      H      0.199440000000     0.366230000000     0.338370000000     0.0485406  
H44      H      0.129890000000     0.409180000000     0.287260000000     0.0497514  
H45      H      0.179320000000     0.427510000000     0.233570000000     0.0489837  
H46      H      0.185240000000     0.436990000000     0.307890000000     0.042492   
H47      H      0.150260000000     0.348580000000     0.393430000000     0.0489927  
H48      H      0.198050000000     0.399120000000     0.372950000000     0.0421367  
H49      H      0.311410000000     0.503340000000     0.000950000000     0.0422822  
H50      H      0.288120000000     0.025610000000     0.086070000000     0.0424237  
H51      H      0.300030000000     0.511480000000     0.178820000000     0.049238   
H52      H      0.352610000000     0.026070000000     0.991800000000     0.0492661  
H53      H      0.333380000000     0.473860000000     0.046910000000     0.0486267  
H54      H      0.360880000000     0.009520000000     0.084280000000     0.0407581  
H55      H      0.316340000000     0.061590000000     0.121710000000     0.0493729  
H56      H      0.340680000000     0.032770000000     0.162240000000     0.0410995  
H57      H      0.216030000000     0.338370000000     0.936730000000     0.0424938  
H58      H      0.184300000000     0.288820000000     0.008770000000     0.0428289  
H59      H      0.163200000000     0.306070000000     0.086530000000     0.0483568  
H60      H      0.193890000000     0.347960000000     0.888800000000     0.0503663  
H61      H      0.214910000000     0.386030000000     0.971490000000     0.0485815  
H62      H      0.173450000000     0.365300000000     0.967180000000     0.0408572  
H63      H      0.142850000000     0.268020000000     0.004180000000     0.0484538  
H64      H      0.141690000000     0.315970000000     0.037570000000     0.0397683  
H65      H      0.307180000000     0.224930000000     0.542570000000     0.041942   
H66      H      0.255790000000     0.204220000000     0.479640000000     0.0406629  
H67      H      0.262650000000     0.181960000000     0.391030000000     0.0480505  
H68      H      0.310990000000     0.194430000000     0.580740000000     0.0495901  
H69      H      0.343960000000     0.213440000000     0.493180000000     0.0494773  
H70      H      0.316070000000     0.170810000000     0.491880000000     0.0415585  
H71      H      0.229340000000     0.161270000000     0.478910000000     0.0470504  
H72      H      0.266790000000     0.151600000000     0.428850000000     0.0403199  
H73      H      0.460110000000     0.316310000000     0.457950000000     0.0424482  
H74      H      0.981340000000     0.317860000000     0.344940000000     0.0418292  
H75      H      0.461170000000     0.344800000000     0.284680000000     0.0479218  
H76      H      0.979640000000     0.354820000000     0.493000000000     0.0483526  
H77      H      0.427090000000     0.340270000000     0.454700000000     0.0497087  
H78      H      0.458370000000     0.378000000000     0.428310000000     0.0407956  
H79      H      0.012410000000     0.356880000000     0.323330000000     0.0490257  
H80      H      0.979030000000     0.380460000000     0.328380000000     0.0404778  
H81      H      0.290370000000     0.336590000000     0.325840000000     0.0422079  
H82      H      0.261440000000     0.292020000000     0.247350000000     0.0421589  
H83      H      0.275250000000     0.315950000000     0.151910000000     0.0490465  
H84      H      0.330740000000     0.350680000000     0.336410000000     0.048309   
H85      H      0.320660000000     0.389320000000     0.279810000000     0.0485644  
H86      H      0.343680000000     0.375840000000     0.242510000000     0.0403895  
H87      H      0.283170000000     0.276940000000     0.210000000000     0.0507833  
H88      H      0.315440000000     0.329950000000     0.164520000000     0.0419919  
H89      H      0.416030000000     0.254750000000     0.101400000000     0.0405906  
H90      H      0.429060000000     0.221780000000     0.169850000000     0.0398629  
H91      H      0.390070000000     0.198410000000     0.244380000000     0.0474157  
H92      H      0.388230000000     0.234080000000     0.046380000000     0.0494032  
H93      H      0.367470000000     0.252200000000     0.126600000000     0.0506467  
H94      H      0.346350000000     0.209080000000     0.116660000000     0.044563   
H95      H      0.409250000000     0.178340000000     0.163090000000     0.0482288  
H96      H      0.360630000000     0.173800000000     0.194350000000     0.0431463  
H97      H      0.132280000000     0.520320000000     0.491230000000     0.040431   
H98      H      0.181980000000     0.514870000000     0.495820000000     0.0401967  
H99      H      0.200900000000     0.519050000000     0.593240000000     0.049686   
H100     H      0.096530000000     0.986950000000     0.517470000000     0.047611   
H101     H      0.122990000000     0.534390000000     0.585360000000     0.0493778  
H102     H      0.115590000000     0.996150000000     0.614040000000     0.0421351  
H103     H      0.177660000000     0.976950000000     0.518780000000     0.0482684  
H104     H      0.164170000000     0.485820000000     0.615590000000     0.0431067  
H105     H      0.196600000000     0.702250000000     0.801260000000     0.041483   
H106     H      0.142390000000     0.647650000000     0.803300000000     0.0419805  
H107     H      0.105140000000     0.655950000000     0.750750000000     0.0491442  
H108     H      0.220080000000     0.710810000000     0.738430000000     0.0488248  
H109     H      0.193800000000     0.743560000000     0.744110000000     0.0485362  
H110     H      0.182760000000     0.717950000000     0.682620000000     0.0413545  
H111     H      0.131580000000     0.622860000000     0.740740000000     0.0501901  
H112     H      0.127130000000     0.663700000000     0.686130000000     0.0420224  
H113     H      0.045440000000     0.778220000000     0.622730000000     0.0407863  
H114     H      0.063720000000     0.828070000000     0.690080000000     0.0420178  
H115     H      0.114420000000     0.844440000000     0.730600000000     0.0505619  
H116     H      0.063140000000     0.784970000000     0.553590000000     0.0487066  
H117     H      0.083190000000     0.760240000000     0.624500000000     0.0480536  
H118     H      0.112580000000     0.797960000000     0.594640000000     0.042442   
H119     H      0.091940000000     0.867370000000     0.663460000000     0.0486024  
H120     H      0.131560000000     0.851280000000     0.660960000000     0.0425547  
H121     H      0.473680000000     0.692430000000     0.821240000000     0.0418327  
H122     H      0.479540000000     0.644430000000     0.866270000000     0.0420508  
H123     H      0.027610000000     0.668640000000     0.918080000000     0.0495601  
H124     H      0.458200000000     0.711470000000     0.866210000000     0.049366   
H125     H      0.014920000000     0.745560000000     0.852590000000     0.0483071  
H126     H      0.004420000000     0.734440000000     0.925740000000     0.0409839  
H127     H      0.470210000000     0.635850000000     0.940340000000     0.0489699  
H128     H      0.013920000000     0.687370000000     0.967580000000     0.0411031  
H129     H      0.280100000000     0.568810000000     0.796720000000     0.0402329  
H130     H      0.248470000000     0.579480000000     0.872140000000     0.0398843  
H131     H      0.282400000000     0.628350000000     0.924660000000     0.048385   
H132     H      0.289310000000     0.590700000000     0.730640000000     0.0505035  
H133     H      0.334280000000     0.611310000000     0.796310000000     0.0492103  
H134     H      0.324180000000     0.641540000000     0.778840000000     0.0442587  
H135     H      0.237660000000     0.609530000000     0.857180000000     0.0477303  
H136     H      0.291270000000     0.653010000000     0.861970000000     0.0429493  
H137     H      0.131960000000     0.876310000000     0.254050000000     0.0414515  
H138     H      0.144090000000     0.838990000000     0.319100000000     0.0415523  
H139     H      0.199410000000     0.866200000000     0.338370000000     0.0485077  
H140     H      0.129850000000     0.909140000000     0.287210000000     0.0497486  
H141     H      0.179270000000     0.927450000000     0.233520000000     0.0489719  
H142     H      0.185210000000     0.936960000000     0.307840000000     0.0425026  
H143     H      0.150230000000     0.848560000000     0.393440000000     0.0490168  
H144     H      0.198020000000     0.899100000000     0.372930000000     0.0421131  
H145     H      0.311400000000     0.003300000000     0.001000000000     0.0422899  
H146     H      0.288130000000     0.525640000000     0.086010000000     0.0424034  
H147     H      0.300030000000     0.011450000000     0.178880000000     0.0492309  
H148     H      0.352630000000     0.526110000000     0.991760000000     0.0492619  
H149     H      0.333370000000     0.973820000000     0.046940000000     0.0486424  
H150     H      0.360890000000     0.509550000000     0.084250000000     0.0407484  
H151     H      0.316340000000     0.561620000000     0.121650000000     0.0493464  
H152     H      0.340680000000     0.532810000000     0.162200000000     0.0411053  
H153     H      0.216050000000     0.838370000000     0.936720000000     0.0424822  
H154     H      0.184320000000     0.788800000000     0.008730000000     0.042826   
H155     H      0.163210000000     0.806040000000     0.086500000000     0.0483631  
H156     H      0.193910000000     0.847960000000     0.888790000000     0.0503486  
H157     H      0.214910000000     0.886020000000     0.971500000000     0.0485878  
H158     H      0.173450000000     0.865280000000     0.967180000000     0.0408509  
H159     H      0.142870000000     0.767990000000     0.004130000000     0.0484482  
H160     H      0.141700000000     0.815930000000     0.037540000000     0.0397759  
H161     H      0.307190000000     0.724870000000     0.542510000000     0.041986   
H162     H      0.255790000000     0.704160000000     0.479570000000     0.0406515  
H163     H      0.262660000000     0.681910000000     0.390960000000     0.0480537  
H164     H      0.310990000000     0.694380000000     0.580670000000     0.0496365  
H165     H      0.343970000000     0.713380000000     0.493120000000     0.0494465  
H166     H      0.316080000000     0.670750000000     0.491810000000     0.0415199  
H167     H      0.229350000000     0.661210000000     0.478840000000     0.0470433  
H168     H      0.266810000000     0.651540000000     0.428790000000     0.0403236  
H169     H      0.460120000000     0.816280000000     0.457910000000     0.0424328  
H170     H      0.981370000000     0.817930000000     0.344870000000     0.041836   
H171     H      0.461160000000     0.844870000000     0.284720000000     0.0479003  
H172     H      0.979630000000     0.854770000000     0.493040000000     0.0483404  
H173     H      0.427060000000     0.840210000000     0.454770000000     0.0497362  
H174     H      0.458320000000     0.877960000000     0.428440000000     0.04082    
H175     H      0.012410000000     0.856980000000     0.323330000000     0.0490463  
H176     H      0.978990000000     0.880510000000     0.328490000000     0.0404651  
H177     H      0.290320000000     0.836520000000     0.325870000000     0.042205   
H178     H      0.261420000000     0.791970000000     0.247360000000     0.0421557  
H179     H      0.275240000000     0.815920000000     0.151930000000     0.0490358  
H180     H      0.330690000000     0.850620000000     0.336470000000     0.0483108  
H181     H      0.320620000000     0.889260000000     0.279880000000     0.0485637  
H182     H      0.343650000000     0.875800000000     0.242580000000     0.0403943  
H183     H      0.283150000000     0.776900000000     0.210010000000     0.0507727  
H184     H      0.315430000000     0.829930000000     0.164560000000     0.0419881  
H185     H      0.416080000000     0.754780000000     0.101380000000     0.0406216  
H186     H      0.429110000000     0.721810000000     0.169810000000     0.0398639  
H187     H      0.390120000000     0.698440000000     0.244340000000     0.0474086  
H188     H      0.388290000000     0.734130000000     0.046360000000     0.0494263  
H189     H      0.367530000000     0.752240000000     0.126580000000     0.0506268  
H190     H      0.346400000000     0.709120000000     0.116620000000     0.0445516  
H191     H      0.409290000000     0.678370000000     0.163040000000     0.0482346  
H192     H      0.360680000000     0.673830000000     0.194320000000     0.0431427  
H193     H      0.632180000000     0.020330000000     0.491310000000     0.0404215  
H194     H      0.681920000000     0.014960000000     0.495600000000     0.0401695  
H195     H      0.700960000000     0.019150000000     0.592930000000     0.0496826  
H196     H      0.596590000000     0.486960000000     0.517320000000     0.0476152  
H197     H      0.622970000000     0.034370000000     0.585510000000     0.0493963  
H198     H      0.615530000000     0.496160000000     0.613960000000     0.0421291  
H199     H      0.677650000000     0.476850000000     0.519090000000     0.0482392  
H200     H      0.664270000000     0.985880000000     0.615390000000     0.0431136  
H201     H      0.696570000000     0.202220000000     0.801350000000     0.0414987  
H202     H      0.642360000000     0.147620000000     0.803330000000     0.0419734  
H203     H      0.605130000000     0.155940000000     0.750780000000     0.0491444  
H204     H      0.720070000000     0.210800000000     0.738540000000     0.0488352  
H205     H      0.693790000000     0.243550000000     0.744230000000     0.0485371  
H206     H      0.682770000000     0.217960000000     0.682720000000     0.041351   
H207     H      0.631570000000     0.122850000000     0.740740000000     0.0501972  
H208     H      0.627140000000     0.163710000000     0.686170000000     0.0420333  
H209     H      0.545420000000     0.278150000000     0.622670000000     0.0408278  
H210     H      0.563620000000     0.327970000000     0.690060000000     0.0420005  
H211     H      0.614320000000     0.344390000000     0.730660000000     0.0506193  
H212     H      0.563160000000     0.284940000000     0.553560000000     0.0487538  
H213     H      0.583220000000     0.260230000000     0.624510000000     0.0480673  
H214     H      0.612600000000     0.297970000000     0.594690000000     0.0424418  
H215     H      0.591820000000     0.367290000000     0.663490000000     0.048586   
H216     H      0.631490000000     0.351270000000     0.661050000000     0.0426036  
H217     H      0.973660000000     0.192400000000     0.821290000000     0.0418585  
H218     H      0.979520000000     0.144400000000     0.866330000000     0.0420591  
H219     H      0.527600000000     0.168610000000     0.918130000000     0.0495359  
H220     H      0.958180000000     0.211440000000     0.866260000000     0.0493724  
H221     H      0.514890000000     0.245530000000     0.852620000000     0.0483067  
H222     H      0.504390000000     0.234420000000     0.925780000000     0.0409834  
H223     H      0.970200000000     0.135830000000     0.940410000000     0.0489565  
H224     H      0.513900000000     0.187360000000     0.967630000000     0.0411046  
H225     H      0.780080000000     0.068790000000     0.796710000000     0.0402702  
H226     H      0.748440000000     0.079420000000     0.872130000000     0.0398745  
H227     H      0.782360000000     0.128280000000     0.924710000000     0.0483911  
H228     H      0.789300000000     0.090690000000     0.730650000000     0.0505315  
H229     H      0.834270000000     0.111290000000     0.796340000000     0.0491898  
H230     H      0.824160000000     0.141520000000     0.778890000000     0.0442337  
H231     H      0.737620000000     0.109470000000     0.857210000000     0.0477179  
H232     H      0.791240000000     0.152960000000     0.862040000000     0.0429565  
H233     H      0.632000000000     0.376360000000     0.254070000000     0.0415068  
H234     H      0.644120000000     0.339020000000     0.319090000000     0.0415373  
H235     H      0.699440000000     0.366230000000     0.338370000000     0.0485427  
H236     H      0.629890000000     0.409180000000     0.287260000000     0.0497876  
H237     H      0.679320000000     0.427510000000     0.233570000000     0.0489828  
H238     H      0.685240000000     0.436990000000     0.307890000000     0.0424892  
H239     H      0.650260000000     0.348580000000     0.393430000000     0.0489987  
H240     H      0.698050000000     0.399120000000     0.372950000000     0.0421378  
H241     H      0.811410000000     0.503340000000     0.000950000000     0.0422876  
H242     H      0.788120000000     0.025610000000     0.086070000000     0.0424251  
H243     H      0.800030000000     0.511480000000     0.178820000000     0.0492409  
H244     H      0.852610000000     0.026070000000     0.991800000000     0.0492726  
H245     H      0.833390000000     0.473860000000     0.046910000000     0.0486156  
H246     H      0.860880000000     0.009520000000     0.084280000000     0.0407674  
H247     H      0.816340000000     0.061590000000     0.121710000000     0.0493753  
H248     H      0.840680000000     0.032770000000     0.162240000000     0.0411062  
H249     H      0.716030000000     0.338370000000     0.936730000000     0.0424955  
H250     H      0.684300000000     0.288820000000     0.008770000000     0.0428311  
H251     H      0.663210000000     0.306070000000     0.086530000000     0.0483697  
H252     H      0.693890000000     0.347960000000     0.888800000000     0.0503684  
H253     H      0.714910000000     0.386030000000     0.971490000000     0.0485841  
H254     H      0.673450000000     0.365300000000     0.967180000000     0.0408633  
H255     H      0.642850000000     0.268020000000     0.004180000000     0.048463   
H256     H      0.641690000000     0.315970000000     0.037570000000     0.0397815  
H257     H      0.807180000000     0.224930000000     0.542570000000     0.0419498  
H258     H      0.755790000000     0.204220000000     0.479640000000     0.0406659  
H259     H      0.762650000000     0.181960000000     0.391030000000     0.0480532  
H260     H      0.810990000000     0.194430000000     0.580740000000     0.0495982  
H261     H      0.843970000000     0.213440000000     0.493180000000     0.0494655  
H262     H      0.816070000000     0.170810000000     0.491880000000     0.0415508  
H263     H      0.729340000000     0.161270000000     0.478910000000     0.0470546  
H264     H      0.766790000000     0.151600000000     0.428850000000     0.0403219  
H265     H      0.960110000000     0.316310000000     0.457950000000     0.0424684  
H266     H      0.481340000000     0.317860000000     0.344940000000     0.0418464  
H267     H      0.961170000000     0.344800000000     0.284680000000     0.0479589  
H268     H      0.479640000000     0.354820000000     0.493000000000     0.0483103  
H269     H      0.927090000000     0.340270000000     0.454700000000     0.0497185  
H270     H      0.958370000000     0.378000000000     0.428310000000     0.0408166  
H271     H      0.512400000000     0.356880000000     0.323330000000     0.0491791  
H272     H      0.479030000000     0.380460000000     0.328380000000     0.0404318  
H273     H      0.790360000000     0.336590000000     0.325840000000     0.0422061  
H274     H      0.761440000000     0.292020000000     0.247350000000     0.042161   
H275     H      0.775250000000     0.315950000000     0.151910000000     0.0490482  
H276     H      0.830740000000     0.350680000000     0.336410000000     0.048311   
H277     H      0.820670000000     0.389320000000     0.279810000000     0.048564   
H278     H      0.843680000000     0.375840000000     0.242510000000     0.0403967  
H279     H      0.783160000000     0.276940000000     0.210000000000     0.0507789  
H280     H      0.815440000000     0.329950000000     0.164520000000     0.0419972  
H281     H      0.916030000000     0.254750000000     0.101400000000     0.040606   
H282     H      0.929060000000     0.221780000000     0.169850000000     0.039881   
H283     H      0.890070000000     0.198410000000     0.244380000000     0.0474238  
H284     H      0.888230000000     0.234080000000     0.046380000000     0.0494123  
H285     H      0.867470000000     0.252200000000     0.126600000000     0.0506519  
H286     H      0.846350000000     0.209080000000     0.116660000000     0.0445644  
H287     H      0.909250000000     0.178340000000     0.163090000000     0.048241   
H288     H      0.860630000000     0.173800000000     0.194350000000     0.0431484  
H289     H      0.632270000000     0.520320000000     0.491230000000     0.0404292  
H290     H      0.681980000000     0.514870000000     0.495820000000     0.0401587  
H291     H      0.700900000000     0.519050000000     0.593240000000     0.0497031  
H292     H      0.596530000000     0.986950000000     0.517470000000     0.0475867  
H293     H      0.622990000000     0.534390000000     0.585360000000     0.0493908  
H294     H      0.615590000000     0.996150000000     0.614040000000     0.0421594  
H295     H      0.677660000000     0.976950000000     0.518780000000     0.0482692  
H296     H      0.664160000000     0.485820000000     0.615590000000     0.0431273  
H297     H      0.696600000000     0.702250000000     0.801260000000     0.0414856  
H298     H      0.642390000000     0.647650000000     0.803300000000     0.0419892  
H299     H      0.605140000000     0.655950000000     0.750750000000     0.0491605  
H300     H      0.720080000000     0.710810000000     0.738430000000     0.0488269  
H301     H      0.693800000000     0.743560000000     0.744110000000     0.0485381  
H302     H      0.682760000000     0.717950000000     0.682620000000     0.041358   
H303     H      0.631580000000     0.622860000000     0.740740000000     0.050202   
H304     H      0.627130000000     0.663700000000     0.686130000000     0.0420336  
H305     H      0.545440000000     0.778220000000     0.622730000000     0.040812   
H306     H      0.563720000000     0.828070000000     0.690080000000     0.0420385  
H307     H      0.614420000000     0.844440000000     0.730600000000     0.0505645  
H308     H      0.563140000000     0.784970000000     0.553590000000     0.0487293  
H309     H      0.583190000000     0.760240000000     0.624500000000     0.0480673  
H310     H      0.612580000000     0.797960000000     0.594640000000     0.0424493  
H311     H      0.591940000000     0.867370000000     0.663460000000     0.0486141  
H312     H      0.631560000000     0.851280000000     0.660960000000     0.0425525  
H313     H      0.973680000000     0.692430000000     0.821240000000     0.0418409  
H314     H      0.979540000000     0.644430000000     0.866270000000     0.0420582  
H315     H      0.527610000000     0.668640000000     0.918080000000     0.0495654  
H316     H      0.958200000000     0.711470000000     0.866210000000     0.0493656  
H317     H      0.514920000000     0.745560000000     0.852590000000     0.0483135  
H318     H      0.504420000000     0.734440000000     0.925740000000     0.041001   
H319     H      0.970210000000     0.635850000000     0.940340000000     0.0489712  
H320     H      0.513920000000     0.687370000000     0.967580000000     0.041117   
H321     H      0.780100000000     0.568810000000     0.796720000000     0.0402344  
H322     H      0.748470000000     0.579480000000     0.872140000000     0.0398757  
H323     H      0.782400000000     0.628350000000     0.924660000000     0.048391   
H324     H      0.789310000000     0.590700000000     0.730640000000     0.0505058  
H325     H      0.834280000000     0.611310000000     0.796310000000     0.0492162  
H326     H      0.824180000000     0.641540000000     0.778840000000     0.0442643  
H327     H      0.737650000000     0.609530000000     0.857180000000     0.0477179  
H328     H      0.791270000000     0.653010000000     0.861970000000     0.0429558  
H329     H      0.631960000000     0.876310000000     0.254050000000     0.0414626  
H330     H      0.644090000000     0.838990000000     0.319100000000     0.0415359  
H331     H      0.699410000000     0.866200000000     0.338370000000     0.048519   
H332     H      0.629850000000     0.909140000000     0.287210000000     0.0497591  
H333     H      0.679270000000     0.927450000000     0.233520000000     0.0489773  
H334     H      0.685210000000     0.936960000000     0.307840000000     0.0425054  
H335     H      0.650230000000     0.848560000000     0.393440000000     0.0489972  
H336     H      0.698020000000     0.899100000000     0.372930000000     0.0421228  
H337     H      0.811400000000     0.003300000000     0.001000000000     0.0422918  
H338     H      0.788130000000     0.525640000000     0.086010000000     0.0424052  
H339     H      0.800030000000     0.011450000000     0.178880000000     0.0492337  
H340     H      0.852630000000     0.526110000000     0.991760000000     0.0492701  
H341     H      0.833370000000     0.973820000000     0.046940000000     0.0486481  
H342     H      0.860890000000     0.509550000000     0.084250000000     0.0407488  
H343     H      0.816340000000     0.561620000000     0.121650000000     0.049349   
H344     H      0.840680000000     0.532810000000     0.162200000000     0.0411117  
H345     H      0.716050000000     0.838370000000     0.936720000000     0.0424838  
H346     H      0.684320000000     0.788800000000     0.008730000000     0.0428294  
H347     H      0.663210000000     0.806040000000     0.086500000000     0.0483704  
H348     H      0.693910000000     0.847960000000     0.888790000000     0.0503508  
H349     H      0.714910000000     0.886020000000     0.971500000000     0.0485904  
H350     H      0.673450000000     0.865280000000     0.967180000000     0.0408568  
H351     H      0.642870000000     0.767990000000     0.004130000000     0.0484566  
H352     H      0.641700000000     0.815930000000     0.037540000000     0.0397861  
H353     H      0.807190000000     0.724870000000     0.542510000000     0.0419911  
H354     H      0.755790000000     0.704160000000     0.479570000000     0.0406921  
H355     H      0.762660000000     0.681910000000     0.390960000000     0.0480462  
H356     H      0.810990000000     0.694380000000     0.580670000000     0.0496421  
H357     H      0.843970000000     0.713380000000     0.493120000000     0.0494525  
H358     H      0.816080000000     0.670750000000     0.491810000000     0.0415238  
H359     H      0.729350000000     0.661210000000     0.478840000000     0.0470871  
H360     H      0.766810000000     0.651540000000     0.428790000000     0.0403168  
H361     H      0.960120000000     0.816280000000     0.457910000000     0.0424542  
H362     H      0.481370000000     0.817930000000     0.344870000000     0.0418482  
H363     H      0.961160000000     0.844870000000     0.284720000000     0.047929   
H364     H      0.479630000000     0.854770000000     0.493040000000     0.0482959  
H365     H      0.927060000000     0.840210000000     0.454770000000     0.049744   
H366     H      0.958320000000     0.877960000000     0.428440000000     0.0408407  
H367     H      0.512410000000     0.856980000000     0.323330000000     0.0491945  
H368     H      0.478990000000     0.880510000000     0.328490000000     0.0404203  
H369     H      0.790320000000     0.836520000000     0.325870000000     0.0422194  
H370     H      0.761420000000     0.791970000000     0.247360000000     0.0421586  
H371     H      0.775240000000     0.815920000000     0.151930000000     0.0490385  
H372     H      0.830690000000     0.850620000000     0.336470000000     0.0483237  
H373     H      0.820620000000     0.889260000000     0.279880000000     0.048566   
H374     H      0.843650000000     0.875800000000     0.242580000000     0.0404     
H375     H      0.783150000000     0.776900000000     0.210010000000     0.0507756  
H376     H      0.815430000000     0.829930000000     0.164560000000     0.0419936  
H377     H      0.916080000000     0.754780000000     0.101380000000     0.0406373  
H378     H      0.929110000000     0.721810000000     0.169810000000     0.039881   
H379     H      0.890120000000     0.698440000000     0.244340000000     0.0474198  
H380     H      0.888290000000     0.734130000000     0.046360000000     0.0494355  
H381     H      0.867530000000     0.752240000000     0.126580000000     0.050633   
H382     H      0.846400000000     0.709120000000     0.116620000000     0.0445537  
H383     H      0.909290000000     0.678370000000     0.163040000000     0.0482448  
H384     H      0.860690000000     0.673830000000     0.194320000000     0.0431491  
In1      In     0.356560000000     0.268080000000     0.319830000000     2.40025    
In2      In     0.249700000000     0.398200000000     0.160560000000     2.40965    
In3      In     0.376640000000     0.135590000000     0.979340000000     2.40949    
In4      In     0.110390000000     0.253010000000     0.813740000000     2.39927    
In5      In     0.216650000000     0.117740000000     0.663990000000     2.39819    
In6      In     0.085080000000     0.384530000000     0.469340000000     2.40375    
In7      In     0.356560000000     0.768070000000     0.319820000000     2.40022    
In8      In     0.249680000000     0.898170000000     0.160570000000     2.41023    
In9      In     0.376670000000     0.635620000000     0.979300000000     2.40986    
In10     In     0.110410000000     0.753020000000     0.813700000000     2.39903    
In11     In     0.216640000000     0.617730000000     0.663960000000     2.39806    
In12     In     0.085080000000     0.884550000000     0.469320000000     2.40381    
In13     In     0.856560000000     0.268080000000     0.319830000000     2.40026    
In14     In     0.749700000000     0.398200000000     0.160560000000     2.40965    
In15     In     0.876640000000     0.135590000000     0.979340000000     2.4095     
In16     In     0.610390000000     0.253010000000     0.813740000000     2.3991     
In17     In     0.716650000000     0.117740000000     0.663990000000     2.39819    
In18     In     0.585080000000     0.384530000000     0.469340000000     2.40377    
In19     In     0.856560000000     0.768070000000     0.319820000000     2.40041    
In20     In     0.749680000000     0.898170000000     0.160570000000     2.41023    
In21     In     0.876670000000     0.635620000000     0.979300000000     2.40987    
In22     In     0.610410000000     0.753020000000     0.813700000000     2.39904    
In23     In     0.716640000000     0.617730000000     0.663960000000     2.39807    
In24     In     0.585080000000     0.884550000000     0.469320000000     2.40377    
N1       N      0.162700000000     0.028330000000     0.595500000000    -0.165886   
N2       N      0.135710000000     0.479440000000     0.514520000000    -0.167959   
N3       N      0.147850000000     0.201630000000     0.745840000000    -0.166754   
N4       N      0.177300000000     0.164950000000     0.740200000000    -0.165044   
N5       N      0.101570000000     0.301710000000     0.680060000000    -0.16543    
N6       N      0.076590000000     0.327490000000     0.604620000000    -0.166499   
N7       N      0.024740000000     0.209580000000     0.886760000000    -0.166052   
N8       N      0.460870000000     0.171370000000     0.903110000000    -0.166021   
N9       N      0.311980000000     0.123670000000     0.862820000000    -0.166819   
N10      N      0.261560000000     0.099970000000     0.790110000000    -0.166283   
N11      N      0.192630000000     0.398620000000     0.283990000000    -0.166272   
N12      N      0.137330000000     0.377760000000     0.343120000000    -0.165018   
N13      N      0.315170000000     0.489760000000     0.115110000000    -0.166416   
N14      N      0.333080000000     0.045680000000     0.050910000000    -0.165814   
N15      N      0.189900000000     0.348220000000     0.033490000000    -0.167006   
N16      N      0.167960000000     0.305670000000     0.941890000000    -0.166119   
N17      N      0.305080000000     0.198820000000     0.437450000000    -0.167062   
N18      N      0.268320000000     0.177930000000     0.535120000000    -0.167639   
N19      N      0.441250000000     0.340240000000     0.368050000000    -0.165984   
N20      N      0.997900000000     0.352400000000     0.411050000000    -0.166956   
N21      N      0.297990000000     0.355010000000     0.212150000000    -0.167265   
N22      N      0.307280000000     0.311660000000     0.276530000000    -0.166331   
N23      N      0.374400000000     0.223530000000     0.189730000000    -0.166007   
N24      N      0.398370000000     0.204140000000     0.100610000000    -0.166108   
N25      N      0.162680000000     0.528300000000     0.595560000000    -0.165762   
N26      N      0.135690000000     0.979480000000     0.514450000000    -0.167903   
N27      N      0.147860000000     0.701630000000     0.745770000000    -0.166679   
N28      N      0.177310000000     0.664950000000     0.740150000000    -0.165057   
N29      N      0.101600000000     0.801740000000     0.680020000000    -0.165372   
N30      N      0.076630000000     0.827540000000     0.604620000000    -0.166493   
N31      N      0.024770000000     0.709600000000     0.886720000000    -0.166196   
N32      N      0.460890000000     0.671400000000     0.903050000000    -0.165931   
N33      N      0.312010000000     0.623720000000     0.862780000000    -0.166805   
N34      N      0.261580000000     0.600000000000     0.790090000000    -0.166298   
N35      N      0.192600000000     0.898590000000     0.283970000000    -0.166408   
N36      N      0.137300000000     0.877740000000     0.343100000000    -0.164982   
N37      N      0.315160000000     0.989730000000     0.115150000000    -0.166343   
N38      N      0.333090000000     0.545710000000     0.050860000000    -0.165843   
N39      N      0.189900000000     0.848200000000     0.033480000000    -0.167025   
N40      N      0.167980000000     0.805660000000     0.941860000000    -0.166181   
N41      N      0.305090000000     0.698760000000     0.437380000000    -0.167073   
N42      N      0.268320000000     0.677880000000     0.535050000000    -0.167628   
N43      N      0.441230000000     0.840250000000     0.368110000000    -0.165972   
N44      N      0.997890000000     0.852420000000     0.411060000000    -0.166922   
N45      N      0.297970000000     0.854970000000     0.212200000000    -0.167211   
N46      N      0.307250000000     0.811610000000     0.276560000000    -0.16634    
N47      N      0.374450000000     0.723560000000     0.189710000000    -0.166039   
N48      N      0.398420000000     0.704170000000     0.100580000000    -0.16614    
N49      N      0.662700000000     0.028330000000     0.595500000000    -0.165877   
N50      N      0.635710000000     0.479440000000     0.514520000000    -0.167981   
N51      N      0.647850000000     0.201630000000     0.745840000000    -0.166713   
N52      N      0.677300000000     0.164950000000     0.740200000000    -0.165044   
N53      N      0.601570000000     0.301710000000     0.680060000000    -0.16541    
N54      N      0.576590000000     0.327490000000     0.604620000000    -0.166491   
N55      N      0.524750000000     0.209580000000     0.886760000000    -0.166138   
N56      N      0.960870000000     0.171370000000     0.903110000000    -0.166036   
N57      N      0.811980000000     0.123670000000     0.862820000000    -0.166817   
N58      N      0.761560000000     0.099970000000     0.790110000000    -0.166282   
N59      N      0.692630000000     0.398620000000     0.283990000000    -0.166274   
N60      N      0.637330000000     0.377760000000     0.343120000000    -0.165001   
N61      N      0.815170000000     0.489760000000     0.115110000000    -0.166417   
N62      N      0.833080000000     0.045680000000     0.050910000000    -0.165813   
N63      N      0.689900000000     0.348220000000     0.033490000000    -0.167006   
N64      N      0.667960000000     0.305670000000     0.941890000000    -0.166117   
N65      N      0.805080000000     0.198820000000     0.437450000000    -0.167067   
N66      N      0.768320000000     0.177930000000     0.535120000000    -0.167637   
N67      N      0.941250000000     0.340240000000     0.368050000000    -0.165975   
N68      N      0.497900000000     0.352400000000     0.411050000000    -0.167016   
N69      N      0.797990000000     0.355010000000     0.212150000000    -0.167261   
N70      N      0.807280000000     0.311660000000     0.276530000000    -0.166329   
N71      N      0.874400000000     0.223530000000     0.189730000000    -0.166005   
N72      N      0.898370000000     0.204140000000     0.100610000000    -0.166103   
N73      N      0.662680000000     0.528300000000     0.595560000000    -0.165762   
N74      N      0.635690000000     0.979480000000     0.514450000000    -0.167922   
N75      N      0.647860000000     0.701630000000     0.745770000000    -0.166676   
N76      N      0.677310000000     0.664950000000     0.740150000000    -0.165056   
N77      N      0.601600000000     0.801740000000     0.680020000000    -0.165373   
N78      N      0.576630000000     0.827540000000     0.604620000000    -0.16648    
N79      N      0.524770000000     0.709600000000     0.886720000000    -0.166209   
N80      N      0.960890000000     0.671400000000     0.903050000000    -0.165946   
N81      N      0.812010000000     0.623720000000     0.862780000000    -0.166803   
N82      N      0.761580000000     0.600000000000     0.790090000000    -0.166305   
N83      N      0.692600000000     0.898590000000     0.283970000000    -0.166403   
N84      N      0.637300000000     0.877740000000     0.343100000000    -0.164992   
N85      N      0.815160000000     0.989730000000     0.115150000000    -0.166342   
N86      N      0.833090000000     0.545710000000     0.050860000000    -0.165841   
N87      N      0.689900000000     0.848200000000     0.033480000000    -0.167023   
N88      N      0.667980000000     0.805660000000     0.941860000000    -0.16618    
N89      N      0.805090000000     0.698760000000     0.437380000000    -0.167078   
N90      N      0.768320000000     0.677880000000     0.535050000000    -0.167605   
N91      N      0.941230000000     0.840250000000     0.368110000000    -0.165985   
N92      N      0.497890000000     0.852420000000     0.411060000000    -0.166987   
N93      N      0.797970000000     0.854970000000     0.212200000000    -0.167211   
N94      N      0.807250000000     0.811610000000     0.276560000000    -0.166334   
N95      N      0.874450000000     0.723560000000     0.189710000000    -0.166034   
N96      N      0.898420000000     0.704170000000     0.100580000000    -0.166135   
O1       O      0.361650000000     0.260210000000     0.226150000000    -0.495964   
O2       O      0.370200000000     0.231930000000     0.285220000000    -0.503467   
O3       O      0.389900000000     0.303290000000     0.385540000000    -0.490059   
O4       O      0.343650000000     0.307710000000     0.330460000000    -0.502886   
O5       O      0.351150000000     0.240180000000     0.402070000000    -0.498986   
O6       O      0.319990000000     0.271590000000     0.268160000000    -0.492959   
O7       O      0.406980000000     0.305580000000     0.301740000000    -0.506207   
O8       O      0.310840000000     0.226320000000     0.353620000000    -0.506907   
O9       O      0.232620000000     0.393380000000     0.069200000000    -0.501127   
O10      O      0.207290000000     0.353700000000     0.125360000000    -0.503922   
O11      O      0.284870000000     0.394980000000     0.217800000000    -0.502688   
O12      O      0.290590000000     0.434150000000     0.105590000000    -0.499012   
O13      O      0.215850000000     0.412900000000     0.195680000000    -0.500924   
O14      O      0.274300000000     0.453090000000     0.170280000000    -0.502545   
O15      O      0.263320000000     0.359240000000     0.153960000000    -0.507461   
O16      O      0.227170000000     0.384180000000     0.248450000000    -0.501679   
O17      O      0.332200000000     0.134840000000     0.953150000000    -0.498171   
O18      O      0.356140000000     0.123710000000     0.890480000000    -0.507232   
O19      O      0.365190000000     0.082620000000     0.983400000000    -0.496039   
O20      O      0.421410000000     0.134560000000     0.961360000000    -0.494653   
O21      O      0.380800000000     0.182570000000     0.012030000000    -0.498525   
O22      O      0.415980000000     0.171840000000     0.923340000000    -0.50723    
O23      O      0.345940000000     0.099280000000     0.046640000000    -0.504047   
O24      O      0.395370000000     0.157250000000     0.066590000000    -0.500767   
O25      O      0.126650000000     0.259390000000     0.905780000000    -0.50587    
O26      O      0.151460000000     0.298910000000     0.849170000000    -0.490132   
O27      O      0.106630000000     0.205960000000     0.780160000000    -0.495937   
O28      O      0.070790000000     0.211630000000     0.864160000000    -0.488056   
O29      O      0.113840000000     0.297940000000     0.772790000000    -0.491286   
O30      O      0.064530000000     0.250110000000     0.834870000000    -0.508171   
O31      O      0.150880000000     0.248420000000     0.780060000000    -0.511337   
O32      O      0.097970000000     0.255940000000     0.721360000000    -0.502639   
O33      O      0.223990000000     0.110610000000     0.757840000000    -0.501471   
O34      O      0.253290000000     0.106780000000     0.696430000000    -0.490007   
O35      O      0.170440000000     0.077530000000     0.628560000000    -0.486681   
O36      O      0.175400000000     0.118910000000     0.704090000000    -0.489476   
O37      O      0.262180000000     0.156650000000     0.625180000000    -0.500675   
O38      O      0.218530000000     0.163010000000     0.699960000000    -0.50585    
O39      O      0.208320000000     0.069180000000     0.631330000000    -0.506318   
O40      O      0.222060000000     0.138920000000     0.574460000000    -0.510008   
O41      O      0.087720000000     0.376080000000     0.563700000000    -0.508226   
O42      O      0.072890000000     0.335570000000     0.508980000000    -0.495251   
O43      O      0.033990000000     0.369320000000     0.482670000000    -0.50238    
O44      O      0.089840000000     0.434170000000     0.488870000000    -0.502048   
O45      O      0.114700000000     0.364750000000     0.432140000000    -0.49275    
O46      O      0.129860000000     0.429540000000     0.493710000000    -0.511204   
O47      O      0.049460000000     0.368940000000     0.398810000000    -0.501692   
O48      O      0.106880000000     0.396830000000     0.381180000000    -0.495237   
O49      O      0.361670000000     0.760220000000     0.226130000000    -0.495643   
O50      O      0.370230000000     0.731940000000     0.285200000000    -0.503337   
O51      O      0.389890000000     0.803260000000     0.385570000000    -0.490008   
O52      O      0.343620000000     0.807670000000     0.330490000000    -0.503023   
O53      O      0.351160000000     0.740150000000     0.402040000000    -0.498744   
O54      O      0.319990000000     0.771560000000     0.268160000000    -0.493148   
O55      O      0.406980000000     0.805600000000     0.301760000000    -0.506176   
O56      O      0.310850000000     0.726290000000     0.353590000000    -0.507032   
O57      O      0.232620000000     0.893350000000     0.069220000000    -0.501382   
O58      O      0.207290000000     0.853670000000     0.125360000000    -0.504108   
O59      O      0.284840000000     0.894940000000     0.217850000000    -0.50242    
O60      O      0.290570000000     0.934110000000     0.105610000000    -0.499125   
O61      O      0.215830000000     0.912860000000     0.195670000000    -0.501291   
O62      O      0.274300000000     0.953060000000     0.170320000000    -0.502634   
O63      O      0.263300000000     0.859210000000     0.153980000000    -0.507299   
O64      O      0.227140000000     0.884150000000     0.248460000000    -0.501717   
O65      O      0.332240000000     0.634890000000     0.953110000000    -0.498196   
O66      O      0.356160000000     0.623740000000     0.890440000000    -0.507273   
O67      O      0.365210000000     0.582660000000     0.983360000000    -0.496301   
O68      O      0.421440000000     0.634590000000     0.961300000000    -0.494588   
O69      O      0.380840000000     0.682600000000     0.012000000000    -0.498609   
O70      O      0.416000000000     0.671880000000     0.923290000000    -0.507029   
O71      O      0.345960000000     0.599320000000     0.046590000000    -0.504093   
O72      O      0.395410000000     0.657280000000     0.066540000000    -0.500898   
O73      O      0.126670000000     0.759390000000     0.905730000000    -0.505993   
O74      O      0.151490000000     0.798910000000     0.849140000000    -0.49015    
O75      O      0.106650000000     0.705970000000     0.780110000000    -0.495995   
O76      O      0.070800000000     0.711650000000     0.864100000000    -0.488399   
O77      O      0.113890000000     0.797970000000     0.772750000000    -0.491009   
O78      O      0.064550000000     0.750130000000     0.834840000000    -0.508256   
O79      O      0.150900000000     0.748430000000     0.779980000000    -0.511199   
O80      O      0.097970000000     0.755950000000     0.721330000000    -0.502471   
O81      O      0.224010000000     0.610630000000     0.757820000000    -0.50152    
O82      O      0.253290000000     0.606770000000     0.696410000000    -0.489793   
O83      O      0.170440000000     0.577540000000     0.628460000000    -0.486484   
O84      O      0.175410000000     0.618900000000     0.704090000000    -0.489692   
O85      O      0.262180000000     0.656620000000     0.625130000000    -0.500574   
O86      O      0.218530000000     0.663010000000     0.699880000000    -0.505974   
O87      O      0.208290000000     0.569130000000     0.631470000000    -0.506184   
O88      O      0.222060000000     0.638880000000     0.574410000000    -0.510058   
O89      O      0.087780000000     0.876130000000     0.563680000000    -0.508302   
O90      O      0.072870000000     0.835600000000     0.508990000000    -0.495373   
O91      O      0.033980000000     0.869300000000     0.482680000000    -0.502359   
O92      O      0.089810000000     0.934170000000     0.488940000000    -0.502052   
O93      O      0.114680000000     0.864760000000     0.432140000000    -0.493074   
O94      O      0.129870000000     0.929600000000     0.493570000000    -0.511023   
O95      O      0.049460000000     0.869020000000     0.398790000000    -0.501704   
O96      O      0.106860000000     0.896830000000     0.381150000000    -0.495093   
O97      O      0.861650000000     0.260210000000     0.226150000000    -0.49596    
O98      O      0.870200000000     0.231930000000     0.285220000000    -0.503462   
O99      O      0.889900000000     0.303290000000     0.385540000000    -0.490055   
O100     O      0.843650000000     0.307710000000     0.330460000000    -0.502883   
O101     O      0.851150000000     0.240180000000     0.402070000000    -0.498982   
O102     O      0.819990000000     0.271590000000     0.268160000000    -0.492954   
O103     O      0.906980000000     0.305580000000     0.301740000000    -0.506199   
O104     O      0.810840000000     0.226320000000     0.353620000000    -0.506907   
O105     O      0.732620000000     0.393380000000     0.069200000000    -0.501125   
O106     O      0.707290000000     0.353700000000     0.125360000000    -0.50392    
O107     O      0.784870000000     0.394980000000     0.217800000000    -0.502682   
O108     O      0.790590000000     0.434150000000     0.105590000000    -0.499008   
O109     O      0.715850000000     0.412900000000     0.195680000000    -0.500921   
O110     O      0.774300000000     0.453090000000     0.170280000000    -0.502544   
O111     O      0.763320000000     0.359240000000     0.153960000000    -0.507459   
O112     O      0.727170000000     0.384180000000     0.248450000000    -0.501677   
O113     O      0.832200000000     0.134840000000     0.953150000000    -0.49817    
O114     O      0.856140000000     0.123710000000     0.890480000000    -0.507228   
O115     O      0.865190000000     0.082620000000     0.983400000000    -0.496034   
O116     O      0.921410000000     0.134560000000     0.961360000000    -0.494644   
O117     O      0.880800000000     0.182570000000     0.012030000000    -0.498519   
O118     O      0.915980000000     0.171840000000     0.923340000000    -0.507222   
O119     O      0.845940000000     0.099280000000     0.046640000000    -0.504046   
O120     O      0.895370000000     0.157250000000     0.066590000000    -0.500758   
O121     O      0.626650000000     0.259390000000     0.905780000000    -0.505851   
O122     O      0.651460000000     0.298910000000     0.849170000000    -0.490125   
O123     O      0.606630000000     0.205960000000     0.780160000000    -0.495883   
O124     O      0.570790000000     0.211630000000     0.864160000000    -0.488056   
O125     O      0.613840000000     0.297940000000     0.772790000000    -0.491239   
O126     O      0.564530000000     0.250110000000     0.834870000000    -0.50818    
O127     O      0.650890000000     0.248420000000     0.780060000000    -0.511097   
O128     O      0.597980000000     0.255940000000     0.721360000000    -0.502618   
O129     O      0.723990000000     0.110610000000     0.757840000000    -0.501468   
O130     O      0.753290000000     0.106780000000     0.696430000000    -0.490005   
O131     O      0.670440000000     0.077530000000     0.628560000000    -0.486674   
O132     O      0.675400000000     0.118910000000     0.704090000000    -0.48947    
O133     O      0.762180000000     0.156650000000     0.625180000000    -0.500672   
O134     O      0.718530000000     0.163010000000     0.699960000000    -0.505848   
O135     O      0.708320000000     0.069180000000     0.631330000000    -0.506316   
O136     O      0.722060000000     0.138920000000     0.574460000000    -0.510005   
O137     O      0.587720000000     0.376080000000     0.563700000000    -0.508219   
O138     O      0.572890000000     0.335570000000     0.508980000000    -0.495235   
O139     O      0.533990000000     0.369320000000     0.482670000000    -0.50236    
O140     O      0.589840000000     0.434170000000     0.488870000000    -0.502032   
O141     O      0.614700000000     0.364750000000     0.432140000000    -0.492746   
O142     O      0.629860000000     0.429540000000     0.493710000000    -0.511207   
O143     O      0.549460000000     0.368940000000     0.398810000000    -0.501692   
O144     O      0.606880000000     0.396830000000     0.381180000000    -0.495227   
O145     O      0.861670000000     0.760220000000     0.226130000000    -0.495644   
O146     O      0.870230000000     0.731940000000     0.285200000000    -0.503349   
O147     O      0.889890000000     0.803260000000     0.385570000000    -0.490025   
O148     O      0.843620000000     0.807670000000     0.330490000000    -0.503024   
O149     O      0.851160000000     0.740150000000     0.402040000000    -0.498759   
O150     O      0.819990000000     0.771560000000     0.268160000000    -0.493162   
O151     O      0.906970000000     0.805600000000     0.301760000000    -0.506326   
O152     O      0.810850000000     0.726290000000     0.353590000000    -0.507052   
O153     O      0.732620000000     0.893350000000     0.069220000000    -0.50138    
O154     O      0.707290000000     0.853670000000     0.125360000000    -0.504105   
O155     O      0.784840000000     0.894940000000     0.217850000000    -0.502417   
O156     O      0.790570000000     0.934110000000     0.105610000000    -0.499123   
O157     O      0.715830000000     0.912860000000     0.195670000000    -0.501288   
O158     O      0.774300000000     0.953060000000     0.170320000000    -0.502632   
O159     O      0.763300000000     0.859210000000     0.153980000000    -0.507298   
O160     O      0.727140000000     0.884150000000     0.248460000000    -0.501715   
O161     O      0.832240000000     0.634890000000     0.953110000000    -0.498195   
O162     O      0.856160000000     0.623740000000     0.890440000000    -0.50727    
O163     O      0.865210000000     0.582660000000     0.983360000000    -0.496296   
O164     O      0.921440000000     0.634590000000     0.961300000000    -0.494579   
O165     O      0.880840000000     0.682600000000     0.012000000000    -0.498603   
O166     O      0.916000000000     0.671880000000     0.923290000000    -0.507022   
O167     O      0.845960000000     0.599320000000     0.046590000000    -0.504092   
O168     O      0.895410000000     0.657280000000     0.066540000000    -0.500889   
O169     O      0.626670000000     0.759390000000     0.905730000000    -0.505988   
O170     O      0.651490000000     0.798910000000     0.849140000000    -0.490149   
O171     O      0.606650000000     0.705970000000     0.780110000000    -0.495982   
O172     O      0.570800000000     0.711650000000     0.864100000000    -0.488389   
O173     O      0.613890000000     0.797970000000     0.772750000000    -0.491006   
O174     O      0.564550000000     0.750130000000     0.834840000000    -0.508246   
O175     O      0.650900000000     0.748430000000     0.779980000000    -0.511198   
O176     O      0.597970000000     0.755950000000     0.721330000000    -0.50246    
O177     O      0.724010000000     0.610630000000     0.757820000000    -0.501521   
O178     O      0.753290000000     0.606770000000     0.696410000000    -0.489798   
O179     O      0.670440000000     0.577540000000     0.628460000000    -0.48657    
O180     O      0.675410000000     0.618900000000     0.704090000000    -0.489682   
O181     O      0.762180000000     0.656620000000     0.625130000000    -0.500571   
O182     O      0.718530000000     0.663010000000     0.699880000000    -0.505972   
O183     O      0.708290000000     0.569130000000     0.631470000000    -0.50606    
O184     O      0.722060000000     0.638880000000     0.574410000000    -0.510051   
O185     O      0.587780000000     0.876130000000     0.563680000000    -0.508288   
O186     O      0.572880000000     0.835600000000     0.508990000000    -0.495304   
O187     O      0.533980000000     0.869300000000     0.482680000000    -0.502348   
O188     O      0.589810000000     0.934170000000     0.488940000000    -0.50203    
O189     O      0.614680000000     0.864760000000     0.432140000000    -0.493051   
O190     O      0.629870000000     0.929600000000     0.493570000000    -0.511015   
O191     O      0.549460000000     0.869020000000     0.398790000000    -0.501706   
O192     O      0.606860000000     0.896830000000     0.381150000000    -0.495077   


