data_structure

_audit_creation_method RASPA-1.0
_audit_creation_date 2023-5-22
_audit_author_name 'Poobodin Mano'

_cell_length_a    30.957
_cell_length_b    26.8991
_cell_length_c    20.0358
_cell_angle_alpha 90.0007
_cell_angle_beta  90.0002
_cell_angle_gamma 119.995
_cell_volume      14449.6

_symmetry_cell_setting          triclinic
_symmetry_space_group_name_Hall 'P 1'
_symmetry_space_group_name_H-M  'P 1'
_symmetry_Int_Tables_number     1

_symmetry_equiv_pos_as_xyz 'x,y,z'

loop_
_atom_site_label
_atom_site_type_symbol
_atom_site_fract_x
_atom_site_fract_y
_atom_site_fract_z
_atom_site_charge
C1       C      0.951200000000     0.821970000000     0.113630000000     0.407335   
C2       C      0.059720000000     0.902510000000     0.957960000000     0.404065   
C3       C      0.901540000000     0.783840000000     0.900380000000     0.319426   
C4       C      0.936630000000     0.946620000000     0.974430000000     0.41243    
C5       C      0.918860000000     0.236590000000     0.306400000000     0.402084   
C6       C      0.855040000000     0.137450000000     0.121040000000     0.411244   
C7       C      0.992560000000     0.324570000000     0.138610000000     0.315363   
C8       C      0.003400000000     0.173520000000     0.171980000000     0.406343   
C9       C      0.973770000000     0.351300000000     0.533490000000     0.405111   
C10      C      0.083020000000     0.409190000000     0.694870000000     0.406966   
C11      C      0.032040000000     0.521040000000     0.657080000000     0.309861   
C12      C      0.909090000000     0.346310000000     0.707470000000     0.408569   
C13      C      0.894250000000     0.710830000000     0.349650000000     0.405998   
C14      C      0.852480000000     0.687080000000     0.580260000000     0.405845   
C15      C      0.855950000000     0.557910000000     0.476830000000     0.311364   
C16      C      0.998990000000     0.737570000000     0.484930000000     0.401928   
C17      C      0.344500000000     0.430590000000     0.938150000000     0.401608   
C18      C      0.236960000000     0.380690000000     0.762240000000     0.405962   
C19      C      0.394580000000     0.499890000000     0.736840000000     0.314901   
C20      C      0.333430000000     0.309130000000     0.793190000000     0.406204   
C21      C      0.724580000000     0.665470000000     0.034980000000     0.404288   
C22      C      0.740380000000     0.632770000000     0.802190000000     0.404125   
C23      C      0.630020000000     0.508100000000     0.928450000000     0.30797    
C24      C      0.654840000000     0.697160000000     0.886260000000     0.407538   
C25      C      0.331770000000     0.409500000000     0.190190000000     0.408612   
C26      C      0.311600000000     0.252840000000     0.300720000000     0.408606   
C27      C      0.277200000000     0.384940000000     0.387150000000     0.317547   
C28      C      0.183590000000     0.251670000000     0.231620000000     0.403078   
C29      C      0.807230000000     0.851230000000     0.183470000000     0.403621   
C30      C      0.803870000000     0.007940000000     0.297590000000     0.404434   
C31      C      0.909540000000     0.952790000000     0.331360000000     0.311837   
C32      C      0.880100000000     0.015780000000     0.119240000000     0.410279   
C33      C      0.370520000000     0.982050000000     0.751840000000     0.401697   
C34      C      0.251720000000     0.966450000000     0.908960000000     0.404043   
C35      C      0.404820000000     0.036000000000     0.958990000000     0.31721    
C36      C      0.344350000000     0.116580000000     0.798380000000     0.405933   
C37      C      0.586400000000     0.985440000000     0.826970000000     0.409315   
C38      C      0.671670000000     0.026210000000     0.019860000000     0.408245   
C39      C      0.504380000000     0.918160000000     0.009670000000     0.312604   
C40      C      0.615140000000     0.862930000000     0.942340000000     0.409486   
C41      C      0.329300000000     0.948220000000     0.506130000000     0.40614    
C42      C      0.296420000000     0.050510000000     0.357780000000     0.407743   
C43      C      0.329530000000     0.917750000000     0.290400000000     0.315713   
C44      C      0.187460000000     0.875960000000     0.407480000000     0.40757    
C45      C      0.608190000000     0.078730000000     0.590830000000     0.40342    
C46      C      0.711470000000     0.112660000000     0.405890000000     0.40465    
C47      C      0.632860000000     0.201770000000     0.427640000000     0.314835   
C48      C      0.747260000000     0.214600000000     0.591160000000     0.404656   
C49      C      0.414620000000     0.878970000000     0.476740000000    -0.0234846  
C50      C      0.463630000000     0.979310000000     0.431620000000    -0.0223612  
C51      C      0.456800000000     0.891970000000     0.525980000000    -0.0245966  
C52      C      0.505570000000     0.992270000000     0.481210000000    -0.0182594  
C53      C      0.559860000000     0.062960000000     0.694610000000    -0.0123103  
C54      C      0.566590000000     0.983120000000     0.644050000000    -0.0107263  
C55      C      0.586620000000     0.061080000000     0.757880000000    -0.00756188 
C56      C      0.593250000000     0.978200000000     0.705690000000    -0.00887466 
C57      C      0.392750000000     0.005490000000     0.588990000000    -0.00817016 
C58      C      0.320320000000     0.902800000000     0.614860000000    -0.0105994  
C59      C      0.419900000000     0.999220000000     0.649170000000    -0.00953653 
C60      C      0.351050000000     0.902170000000     0.674280000000    -0.00780285 
C61      C      0.409350000000     0.822470000000     0.785950000000    -0.0240475  
C62      C      0.405590000000     0.891450000000     0.866570000000    -0.024361   
C63      C      0.455720000000     0.871900000000     0.753500000000    -0.0227282  
C64      C      0.451890000000     0.941000000000     0.834080000000    -0.0101463  
C65      C      0.701050000000     0.033880000000     0.331350000000    -0.00974244 
C66      C      0.782230000000     0.125940000000     0.335470000000    -0.00917027 
C67      C      0.727450000000     0.999940000000     0.347000000000    -0.0122097  
C68      C      0.809650000000     0.093430000000     0.351990000000    -0.00888864 
C69      C      0.561810000000     0.628790000000     0.163490000000    -0.0249108  
C70      C      0.543360000000     0.589390000000     0.047100000000    -0.02576    
C71      C      0.564730000000     0.576290000000     0.186810000000    -0.0234891  
C72      C      0.546660000000     0.537120000000     0.070210000000    -0.01832    
C73      C      0.295840000000     0.116860000000     0.273110000000    -0.010802   
C74      C      0.301360000000     0.140110000000     0.396830000000    -0.010033   
C75      C      0.332160000000     0.180430000000     0.259100000000    -0.0104569  
C76      C      0.337990000000     0.202960000000     0.380490000000    -0.010697   
C77      C      0.674160000000     0.795670000000     0.859180000000    -0.0101692  
C78      C      0.587880000000     0.721750000000     0.893470000000    -0.0100556  
C79      C      0.677480000000     0.833780000000     0.917670000000    -0.00913108 
C80      C      0.589790000000     0.760020000000     0.951440000000    -0.0117315  
C81      C      0.713710000000     0.698880000000     0.145480000000    -0.0121316  
C82      C      0.797480000000     0.720100000000     0.108180000000    -0.0122219  
C83      C      0.730740000000     0.762980000000     0.150010000000    -0.00961349 
C84      C      0.816780000000     0.784550000000     0.109730000000    -0.00642137 
C85      C      0.390190000000     0.218560000000     0.763580000000    -0.0100693  
C86      C      0.298230000000     0.160450000000     0.748110000000    -0.0107923  
C87      C      0.384760000000     0.263300000000     0.804030000000    -0.0102809  
C88      C      0.290580000000     0.203550000000     0.788820000000    -0.0103525  
C89      C      0.317980000000     0.455880000000     0.041560000000    -0.0105524  
C90      C      0.383060000000     0.422230000000     0.040920000000    -0.0087102  
C91      C      0.338400000000     0.482630000000     0.109960000000    -0.00877935 
C92      C      0.400740000000     0.451340000000     0.108830000000    -0.0106939  
C93      C      0.488970000000     0.458810000000     0.856520000000    -0.0288246  
C94      C      0.540020000000     0.518270000000     0.759680000000    -0.0235019  
C95      C      0.484020000000     0.509420000000     0.881780000000    -0.00621555 
C96      C      0.535670000000     0.569220000000     0.785530000000    -0.0156985  
C97      C      0.104800000000     0.863390000000     0.435190000000    -0.0102584  
C98      C      0.114760000000     0.777380000000     0.412020000000    -0.0100373  
C99      C      0.074080000000     0.833290000000     0.497220000000    -0.01079    
C100     C      0.082600000000     0.747320000000     0.473360000000    -0.0114194  
C101     C      0.820450000000     0.655130000000     0.749590000000    -0.0103034  
C102     C      0.744200000000     0.627870000000     0.679120000000    -0.0101186  
C103     C      0.851600000000     0.704540000000     0.701520000000    -0.0115032  
C104     C      0.776000000000     0.677720000000     0.631760000000    -0.0115476  
C105     C      0.814580000000     0.222540000000     0.663300000000    -0.00939161 
C106     C      0.798780000000     0.307300000000     0.646530000000    -0.0111188  
C107     C      0.838940000000     0.249590000000     0.730280000000    -0.0108411  
C108     C      0.823710000000     0.330150000000     0.714260000000    -0.0091223  
C109     C      0.884300000000     0.447330000000     0.381990000000    -0.024676   
C110     C      0.940700000000     0.496870000000     0.479410000000    -0.0248181  
C111     C      0.843690000000     0.405770000000     0.429990000000    -0.0248203  
C112     C      0.899790000000     0.455780000000     0.527270000000    -0.0127053  
C113     C      0.167670000000     0.426710000000     0.670130000000    -0.00988004 
C114     C      0.130330000000     0.394280000000     0.784870000000    -0.0111376  
C115     C      0.183890000000     0.381630000000     0.670640000000    -0.0107631  
C116     C      0.148550000000     0.350710000000     0.785380000000    -0.0102873  
C117     C      0.942990000000     0.343540000000     0.418250000000    -0.0109293  
C118     C      0.963450000000     0.269710000000     0.465710000000    -0.00948166 
C119     C      0.898540000000     0.294830000000     0.381710000000    -0.0108417  
C120     C      0.918460000000     0.223040000000     0.428280000000    -0.0107414  
C121     C      0.097750000000     0.178630000000     0.257950000000    -0.00883557 
C122     C      0.123740000000     0.225050000000     0.140160000000    -0.00962387 
C123     C      0.049730000000     0.131800000000     0.225770000000    -0.00958028 
C124     C      0.074560000000     0.175300000000     0.114420000000    -0.0104543  
C125     C      0.754090000000     0.114700000000     0.019480000000    -0.0104251  
C126     C      0.722750000000     0.054650000000     0.123020000000    -0.0116543  
C127     C      0.801140000000     0.109700000000     0.021120000000    -0.00955061 
C128     C      0.770730000000     0.051400000000     0.126530000000    -0.00712386 
C129     C      0.949320000000     0.072440000000     0.040680000000    -0.0101459  
C130     C      0.861160000000     0.016290000000     0.000310000000    -0.00782549 
C131     C      0.960640000000     0.049190000000     0.976680000000    -0.0105792  
C132     C      0.870300000000     0.972000000000     0.964030000000    -0.00954279 
C133     C      0.947910000000     0.747610000000     0.189240000000    -0.0109771  
C134     C      0.935320000000     0.826930000000     0.234210000000    -0.012336   
C135     C      0.902070000000     0.703680000000     0.227770000000    -0.0104421  
C136     C      0.890780000000     0.782740000000     0.275540000000    -0.0105591  
C137     C      0.112950000000     0.420810000000     0.261540000000    -0.0242784  
C138     C      0.114430000000     0.329500000000     0.280300000000    -0.0217384  
C139     C      0.068960000000     0.400270000000     0.309880000000    -0.0189167  
C140     C      0.070440000000     0.308880000000     0.328590000000    -0.0192679  
C141     C      0.122010000000     0.898950000000     0.883940000000    -0.0111582  
C142     C      0.149100000000     0.970180000000     0.979100000000    -0.0108579  
C143     C      0.164190000000     0.887170000000     0.901470000000    -0.010353   
C144     C      0.191020000000     0.957620000000     0.995360000000    -0.0107718  
H1       H      0.472600000000     0.967690000000     0.382370000000     0.0496916  
H2       H      0.418190000000     0.856680000000     0.432180000000     0.0437833  
H3       H      0.460910000000     0.853550000000     0.532420000000     0.0366384  
H4       H      0.459450000000     0.017700000000     0.425230000000     0.0506805  
H5       H      0.542350000000     0.021000000000     0.457860000000     0.0462271  
H6       H      0.501500000000     0.013980000000     0.525990000000     0.0418899  
H7       H      0.377930000000     0.850780000000     0.500640000000     0.0387667  
H8       H      0.448040000000     0.903640000000     0.575280000000     0.0374862  
H9       H      0.525860000000     0.953980000000     0.650580000000     0.0396458  
H10      H      0.519240000000     0.033920000000     0.702110000000     0.0418776  
H11      H      0.569340000000     0.069950000000     0.801590000000     0.047158   
H12      H      0.578600000000     0.968850000000     0.599200000000     0.0523876  
H13      H      0.580310000000     0.932030000000     0.714580000000     0.0450762  
H14      H      0.633920000000     0.999970000000     0.695000000000     0.0437734  
H15      H      0.566550000000     0.107160000000     0.686670000000     0.048482   
H16      H      0.626210000000     0.096010000000     0.755180000000     0.0438132  
H17      H      0.288730000000     0.907290000000     0.634070000000     0.0454183  
H18      H      0.379270000000     0.035560000000     0.602300000000     0.0454717  
H19      H      0.445710000000     0.042280000000     0.670440000000     0.0463642  
H20      H      0.303790000000     0.860580000000     0.589040000000     0.0451972  
H21      H      0.325890000000     0.873600000000     0.714150000000     0.0466519  
H22      H      0.374810000000     0.884400000000     0.657250000000     0.035397   
H23      H      0.419920000000     0.025680000000     0.547460000000     0.0483854  
H24      H      0.442510000000     0.980030000000     0.632040000000     0.0382573  
H25      H      0.371410000000     0.889160000000     0.845660000000     0.0532209  
H26      H      0.375620000000     0.813560000000     0.756900000000     0.0402669  
H27      H      0.454900000000     0.864960000000     0.698800000000     0.0321002  
H28      H      0.406290000000     0.898360000000     0.921280000000     0.0509129  
H29      H      0.448850000000     0.980380000000     0.833220000000     0.0369386  
H30      H      0.485420000000     0.950070000000     0.863400000000     0.0384972  
H31      H      0.412460000000     0.783120000000     0.786640000000     0.0415425  
H32      H      0.489790000000     0.873850000000     0.774410000000     0.0454609  
H33      H      0.782650000000     0.131140000000     0.280350000000     0.0409774  
H34      H      0.698680000000     0.036410000000     0.276200000000     0.0374967  
H35      H      0.707810000000     0.958020000000     0.320580000000     0.0500016  
H36      H      0.802360000000     0.169420000000     0.358190000000     0.0483537  
H37      H      0.847440000000     0.116470000000     0.329540000000     0.0560675  
H38      H      0.814190000000     0.093730000000     0.407060000000     0.0408412  
H39      H      0.662410000000     0.010500000000     0.351380000000     0.0501195  
H40      H      0.724350000000     0.991090000000     0.401520000000     0.0441089  
H41      H      0.503760000000     0.578750000000     0.046130000000     0.0399747  
H42      H      0.524080000000     0.622240000000     0.174230000000     0.0424316  
H43      H      0.548750000000     0.563550000000     0.237700000000     0.0403958  
H44      H      0.558870000000     0.601990000000     0.996140000000     0.0557459  
H45      H      0.518820000000     0.498070000000     0.043310000000     0.0345797  
H46      H      0.584500000000     0.544030000000     0.059520000000     0.0443263  
H47      H      0.589900000000     0.667750000000     0.190350000000     0.0378161  
H48      H      0.604290000000     0.586780000000     0.188270000000     0.0427932  
H49      H      0.263490000000     0.134700000000     0.402100000000     0.0436751  
H50      H      0.257220000000     0.108420000000     0.264870000000     0.0426426  
H51      H      0.324370000000     0.191790000000     0.208920000000     0.0496233  
H52      H      0.311800000000     0.129660000000     0.445780000000     0.050029   
H53      H      0.334820000000     0.230970000000     0.418660000000     0.0501433  
H54      H      0.376460000000     0.209710000000     0.382950000000     0.0420371  
H55      H      0.302830000000     0.090530000000     0.236610000000     0.0489238  
H56      H      0.370640000000     0.187120000000     0.258560000000     0.0419716  
H57      H      0.570970000000     0.730960000000     0.849620000000     0.0407594  
H58      H      0.659860000000     0.808020000000     0.814990000000     0.0412562  
H59      H      0.701970000000     0.879520000000     0.903560000000     0.0475772  
H60      H      0.563500000000     0.675960000000     0.907290000000     0.0505769  
H61      H      0.551810000000     0.753470000000     0.960040000000     0.0503447  
H62      H      0.601260000000     0.746240000000     0.997230000000     0.0452351  
H63      H      0.712010000000     0.803270000000     0.846850000000     0.0481734  
H64      H      0.695250000000     0.824440000000     0.960410000000     0.0414657  
H65      H      0.804220000000     0.706890000000     0.157830000000     0.039      
H66      H      0.719620000000     0.684560000000     0.195000000000     0.0390374  
H67      H      0.712910000000     0.770210000000     0.194290000000     0.0479017  
H68      H      0.818460000000     0.710360000000     0.070300000000     0.0576428  
H69      H      0.855960000000     0.806430000000     0.126900000000     0.049337   
H70      H      0.816470000000     0.799470000000     0.058060000000     0.046327   
H71      H      0.673220000000     0.674290000000     0.134040000000     0.0494784  
H72      H      0.717120000000     0.775200000000     0.105030000000     0.0436234  
H73      H      0.301670000000     0.172910000000     0.694600000000     0.0408302  
H74      H      0.395670000000     0.232010000000     0.710320000000     0.0417324  
H75      H      0.417000000000     0.306470000000     0.792710000000     0.0507927  
H76      H      0.264960000000     0.116970000000     0.753510000000     0.0480462  
H77      H      0.258660000000     0.206190000000     0.767320000000     0.0477581  
H78      H      0.280410000000     0.187110000000     0.840720000000     0.0425872  
H79      H      0.423920000000     0.217450000000     0.780430000000     0.0505843  
H80      H      0.386660000000     0.254820000000     0.857960000000     0.0440487  
H81      H      0.361160000000     0.374990000000     0.048660000000     0.0458198  
H82      H      0.281260000000     0.416280000000     0.048810000000     0.0486782  
H83      H      0.308580000000     0.483720000000     0.139760000000     0.0485815  
H84      H      0.416280000000     0.431190000000     0.010550000000     0.0408765  
H85      H      0.417280000000     0.429770000000     0.137980000000     0.0514288  
H86      H      0.430280000000     0.496670000000     0.100560000000     0.0392147  
H87      H      0.311070000000     0.486150000000     0.011820000000     0.0488052  
H88      H      0.368900000000     0.527640000000     0.102310000000     0.0379921  
H89      H      0.576080000000     0.522700000000     0.776020000000     0.0510137  
H90      H      0.519800000000     0.457480000000     0.883200000000     0.0539746  
H91      H      0.484480000000     0.510350000000     0.937050000000     0.0337363  
H92      H      0.538760000000     0.517280000000     0.704300000000     0.0421109  
H93      H      0.571130000000     0.609920000000     0.776730000000     0.0417409  
H94      H      0.505230000000     0.571320000000     0.758680000000     0.0384665  
H95      H      0.454110000000     0.417830000000     0.866160000000     0.05596    
H96      H      0.448240000000     0.505000000000     0.864480000000     0.0324655  
H97      H      0.090190000000     0.763070000000     0.367300000000     0.04139    
H98      H      0.078700000000     0.854870000000     0.392930000000     0.0406061  
H99      H      0.047130000000     0.848320000000     0.507070000000     0.0501684  
H100     H      0.142900000000     0.763600000000     0.405600000000     0.0501899  
H101     H      0.061620000000     0.700170000000     0.464830000000     0.0506972  
H102     H      0.107890000000     0.756020000000     0.516650000000     0.0432391  
H103     H      0.125690000000     0.910470000000     0.444170000000     0.0489     
H104     H      0.099860000000     0.845700000000     0.540590000000     0.0426743  
H105     H      0.742000000000     0.588280000000     0.658520000000     0.0404842  
H106     H      0.824020000000     0.617560000000     0.734500000000     0.0422212  
H107     H      0.890540000000     0.712800000000     0.700650000000     0.0521473  
H108     H      0.705740000000     0.621160000000     0.680530000000     0.0467356  
H109     H      0.760310000000     0.666430000000     0.580490000000     0.0494133  
H110     H      0.773830000000     0.715850000000     0.648420000000     0.0429231  
H111     H      0.835970000000     0.667800000000     0.800790000000     0.0507007  
H112     H      0.852500000000     0.743790000000     0.720910000000     0.0449266  
H113     H      0.825520000000     0.333270000000     0.606610000000     0.0484985  
H114     H      0.844480000000     0.230920000000     0.626680000000     0.0430412  
H115     H      0.867410000000     0.237500000000     0.743300000000     0.0486615  
H116     H      0.766150000000     0.313880000000     0.642290000000     0.0494693  
H117     H      0.840940000000     0.377670000000     0.715740000000     0.0476694  
H118     H      0.794560000000     0.311700000000     0.753720000000     0.0397544  
H119     H      0.791870000000     0.175200000000     0.669820000000     0.0459887  
H120     H      0.809670000000     0.232300000000     0.769640000000     0.0396041  
H121     H      0.967420000000     0.481470000000     0.469870000000     0.0592502  
H122     H      0.905180000000     0.427100000000     0.361520000000     0.0403277  
H123     H      0.823390000000     0.362180000000     0.407680000000     0.042471   
H124     H      0.961430000000     0.540430000000     0.501700000000     0.0588196  
H125     H      0.916550000000     0.445680000000     0.570320000000     0.044264   
H126     H      0.878640000000     0.476100000000     0.546500000000     0.0456376  
H127     H      0.867070000000     0.457910000000     0.339780000000     0.0425821  
H128     H      0.816650000000     0.420710000000     0.439610000000     0.0455684  
H129     H      0.158600000000     0.433750000000     0.810900000000     0.0431069  
H130     H      0.199450000000     0.468060000000     0.687810000000     0.0413351  
H131     H      0.217870000000     0.396750000000     0.639420000000     0.0497106  
H132     H      0.094880000000     0.376440000000     0.813440000000     0.0502121  
H133     H      0.157420000000     0.344580000000     0.837440000000     0.0502703  
H134     H      0.117600000000     0.308900000000     0.767290000000     0.0421691  
H135     H      0.159160000000     0.433000000000     0.617940000000     0.0495881  
H136     H      0.153610000000     0.341590000000     0.647890000000     0.0432176  
H137     H      0.997500000000     0.281600000000     0.435980000000     0.0456117  
H138     H      0.974500000000     0.364950000000     0.382600000000     0.0432208  
H139     H      0.890950000000     0.311630000000     0.335150000000     0.0466778  
H140     H      0.967200000000     0.251650000000     0.513840000000     0.0489834  
H141     H      0.924970000000     0.187030000000     0.415830000000     0.0483431  
H142     H      0.885440000000     0.206090000000     0.461810000000     0.0395839  
H143     H      0.932800000000     0.375800000000     0.434280000000     0.0496287  
H144     H      0.865180000000     0.278620000000     0.414500000000     0.0431337  
H145     H      0.121140000000     0.264790000000     0.139500000000     0.0459189  
H146     H      0.088350000000     0.205790000000     0.289640000000     0.0420053  
H147     H      0.019100000000     0.113630000000     0.263200000000     0.0588071  
H148     H      0.154060000000     0.232210000000     0.104830000000     0.0462357  
H149     H      0.062200000000     0.189000000000     0.069390000000     0.044853   
H150     H      0.080900000000     0.139580000000     0.099600000000     0.0388462  
H151     H      0.112600000000     0.158060000000     0.292030000000     0.0461092  
H152     H      0.056130000000     0.096610000000     0.208840000000     0.044949   
H153     H      0.728010000000     0.091440000000     0.154260000000     0.0396664  
H154     H      0.761920000000     0.154410000000     0.046650000000     0.0423777  
H155     H      0.832580000000     0.148710000000     0.998350000000     0.0486168  
H156     H      0.691350000000     0.014850000000     0.144490000000     0.0485041  
H157     H      0.780150000000     0.049560000000     0.179590000000     0.0444083  
H158     H      0.763450000000     0.010840000000     0.102050000000     0.0467392  
H159     H      0.744990000000     0.119000000000     0.966880000000     0.0494484  
H160     H      0.794320000000     0.072100000000     0.990270000000     0.0390595  
H161     H      0.821400000000     0.996380000000     0.015590000000     0.0455258  
H162     H      0.972950000000     0.071330000000     0.081700000000     0.0542805  
H163     H      0.999590000000     0.057450000000     0.978270000000     0.0484994  
H164     H      0.869260000000     0.052030000000     0.965310000000     0.0356048  
H165     H      0.845510000000     0.928930000000     0.986120000000     0.0526204  
H166     H      0.859970000000     0.969960000000     0.910580000000     0.0356366  
H167     H      0.959700000000     0.117900000000     0.032460000000     0.0407186  
H168     H      0.957630000000     0.073000000000     0.933200000000     0.0369551  
H169     H      0.968940000000     0.845680000000     0.266700000000     0.0410389  
H170     H      0.981510000000     0.759650000000     0.220290000000     0.0411076  
H171     H      0.906490000000     0.666240000000     0.240430000000     0.0504153  
H172     H      0.928620000000     0.862280000000     0.219220000000     0.0542176  
H173     H      0.888820000000     0.803040000000     0.322910000000     0.0499558  
H174     H      0.856080000000     0.770420000000     0.247100000000     0.0411773  
H175     H      0.951360000000     0.727390000000     0.142680000000     0.0502059  
H176     H      0.869040000000     0.688180000000     0.194640000000     0.040322   
H177     H      0.100530000000     0.310810000000     0.230090000000     0.0494285  
H178     H      0.098960000000     0.411430000000     0.209360000000     0.0510287  
H179     H      0.042740000000     0.414190000000     0.291930000000     0.0375487  
H180     H      0.140620000000     0.315580000000     0.298180000000     0.0474321  
H181     H      0.045160000000     0.261910000000     0.323200000000     0.0413909  
H182     H      0.084480000000     0.318140000000     0.380770000000     0.0436313  
H183     H      0.138140000000     0.467820000000     0.266780000000     0.0410991  
H184     H      0.082770000000     0.419000000000     0.360160000000     0.0425875  
H185     H      0.164720000000     0.009140000000     0.947110000000     0.0435278  
H186     H      0.135260000000     0.931520000000     0.843390000000     0.044562   
H187     H      0.176810000000     0.875070000000     0.855470000000     0.0509034  
H188     H      0.135900000000     0.979950000000     0.026250000000     0.0490146  
H189     H      0.223070000000     0.996570000000     0.017290000000     0.04929    
H190     H      0.176990000000     0.923020000000     0.033590000000     0.0418367  
H191     H      0.089820000000     0.858840000000     0.864360000000     0.0506802  
H192     H      0.149110000000     0.850020000000     0.936290000000     0.0417014  
In1      In     0.962880000000     0.864920000000     0.988340000000     2.39288    
In2      In     0.940280000000     0.214950000000     0.183030000000     2.41786    
In3      In     0.000000000000     0.407480000000     0.650960000000     2.42044    
In4      In     0.899110000000     0.673690000000     0.473380000000     2.41151    
In5      In     0.327920000000     0.405810000000     0.806610000000     2.39726    
In6      In     0.687290000000     0.623460000000     0.913090000000     2.421      
In7      In     0.276250000000     0.324970000000     0.277650000000     2.40566    
In8      In     0.850000000000     0.958040000000     0.235490000000     2.43306    
In9      In     0.343920000000     0.025240000000     0.855480000000     2.39775    
In10     In     0.592680000000     0.947720000000     0.949620000000     2.4083     
In11     In     0.286200000000     0.947380000000     0.388810000000     2.40113    
In12     In     0.674720000000     0.152190000000     0.501810000000     2.40216    
N1       N      0.503010000000     0.939200000000     0.501150000000    -0.100048   
N2       N      0.417370000000     0.931970000000     0.456080000000    -0.0946719  
N3       N      0.585360000000     0.005620000000     0.764840000000    -0.167058   
N4       N      0.576830000000     0.042300000000     0.638390000000    -0.166199   
N5       N      0.382670000000     0.961080000000     0.697430000000    -0.165076   
N6       N      0.349420000000     0.950340000000     0.567420000000    -0.165      
N7       N      0.457070000000     0.925500000000     0.766680000000    -0.104631   
N8       N      0.404490000000     0.837980000000     0.853490000000    -0.0945507  
N9       N      0.780760000000     0.033360000000     0.329070000000    -0.166216   
N10      N      0.730320000000     0.092290000000     0.358420000000    -0.167462   
N11      N      0.537260000000     0.529090000000     0.141180000000    -0.102432   
N12      N      0.571080000000     0.636680000000     0.092470000000    -0.0984335  
N13      N      0.328260000000     0.215310000000     0.312570000000    -0.166211   
N14      N      0.300200000000     0.102070000000     0.342820000000    -0.166055   
N15      N      0.626910000000     0.820500000000     0.937410000000    -0.166923   
N16      N      0.638940000000     0.735590000000     0.876490000000    -0.166896   
N17      N      0.785700000000     0.798940000000     0.152600000000    -0.167053   
N18      N      0.743820000000     0.690320000000     0.095210000000    -0.165374   
N19      N      0.336510000000     0.260260000000     0.790860000000    -0.165991   
N20      N      0.344450000000     0.162680000000     0.769770000000    -0.166196   
N21      N      0.358310000000     0.449790000000     0.142800000000    -0.1663     
N22      N      0.351260000000     0.440360000000     0.005220000000    -0.166949   
N23      N      0.524740000000     0.562410000000     0.856190000000    -0.0952115  
N24      N      0.499400000000     0.465270000000     0.785720000000    -0.0954192  
N25      N      0.049680000000     0.770840000000     0.487520000000    -0.165058   
N26      N      0.137710000000     0.840210000000     0.418400000000    -0.166595   
N27      N      0.828180000000     0.691080000000     0.635090000000    -0.165911   
N28      N      0.767470000000     0.639090000000     0.745790000000    -0.166073   
N29      N      0.860360000000     0.311760000000     0.725000000000    -0.166798   
N30      N      0.784050000000     0.246290000000     0.636200000000    -0.166374   
N31      N      0.866070000000     0.403460000000     0.492400000000    -0.102259   
N32      N      0.918480000000     0.499450000000     0.416960000000    -0.0971298  
N33      N      0.191410000000     0.369950000000     0.740050000000    -0.165559   
N34      N      0.125080000000     0.409340000000     0.715730000000    -0.16612    
N35      N      0.909420000000     0.248510000000     0.369050000000    -0.166903   
N36      N      0.958900000000     0.321420000000     0.475020000000    -0.165981   
N37      N      0.037970000000     0.156330000000     0.168330000000    -0.164976   
N38      N      0.136290000000     0.216030000000     0.208900000000    -0.167487   
N39      N      0.811210000000     0.100240000000     0.090410000000    -0.169518   
N40      N      0.713490000000     0.064650000000     0.053550000000    -0.165629   
N41      N      0.923340000000     0.987810000000     0.969110000000    -0.165958   
N42      N      0.895720000000     0.038750000000     0.057180000000    -0.168098   
N43      N      0.894860000000     0.731140000000     0.286950000000    -0.16684    
N44      N      0.944300000000     0.799310000000     0.176390000000    -0.167505   
N45      N      0.043170000000     0.338360000000     0.314550000000    -0.103476   
N46      N      0.140280000000     0.391420000000     0.275810000000    -0.0963412  
N47      N      0.204640000000     0.937670000000     0.934880000000    -0.165005   
N48      N      0.108540000000     0.921820000000     0.942330000000    -0.165878   
O1       O      0.981350000000     0.958350000000     0.979020000000    -0.500071   
O2       O      0.905070000000     0.893790000000     0.976800000000    -0.503742   
O3       O      0.046700000000     0.922760000000     0.005570000000    -0.497996   
O4       O      0.959880000000     0.799650000000     0.063830000000    -0.502997   
O5       O      0.937390000000     0.831840000000     0.882580000000    -0.469047   
O6       O      0.948660000000     0.866290000000     0.100500000000    -0.502201   
O7       O      0.024000000000     0.863370000000     0.925540000000    -0.493602   
O8       O      0.896800000000     0.776960000000     0.962790000000    -0.46881    
O9       O      0.996690000000     0.200530000000     0.125450000000    -0.507881   
O10      O      0.977460000000     0.166190000000     0.223430000000    -0.487774   
O11      O      0.863070000000     0.133900000000     0.181920000000    -0.513495   
O12      O      0.911510000000     0.258020000000     0.254680000000    -0.504418   
O13      O      0.011600000000     0.301650000000     0.173860000000    -0.479779   
O14      O      0.936690000000     0.204210000000     0.295850000000    -0.492565   
O15      O      0.890240000000     0.179200000000     0.091130000000    -0.507507   
O16      O      0.946940000000     0.291870000000     0.125910000000    -0.467409   
O17      O      0.940140000000     0.328960000000     0.706640000000    -0.500582   
O18      O      0.925110000000     0.395920000000     0.684000000000    -0.512397   
O19      O      0.078200000000     0.422490000000     0.636080000000    -0.512754   
O20      O      0.988410000000     0.334440000000     0.582670000000    -0.505493   
O21      O      0.020770000000     0.489590000000     0.708250000000    -0.479447   
O22      O      0.973710000000     0.397670000000     0.542800000000    -0.500669   
O23      O      0.045910000000     0.395470000000     0.732440000000    -0.498967   
O24      O      0.027070000000     0.494870000000     0.602810000000    -0.475119   
O25      O      0.970440000000     0.758000000000     0.492790000000    -0.502877   
O26      O      0.977080000000     0.684410000000     0.472650000000    -0.491449   
O27      O      0.833440000000     0.676180000000     0.522620000000    -0.500872   
O28      O      0.901390000000     0.669290000000     0.360180000000    -0.507797   
O29      O      0.897230000000     0.591050000000     0.504210000000    -0.472906   
O30      O      0.887860000000     0.732900000000     0.401680000000    -0.495937   
O31      O      0.895300000000     0.692520000000     0.583570000000    -0.50535    
O32      O      0.836620000000     0.583480000000     0.447510000000    -0.476089   
O33      O      0.292410000000     0.308540000000     0.793290000000    -0.502001   
O34      O      0.371370000000     0.358370000000     0.798260000000    -0.494653   
O35      O      0.245030000000     0.373650000000     0.822300000000    -0.490991   
O36      O      0.315150000000     0.440480000000     0.904500000000    -0.490176   
O37      O      0.381470000000     0.449340000000     0.719380000000    -0.470949   
O38      O      0.365600000000     0.408710000000     0.905420000000    -0.509053   
O39      O      0.274560000000     0.399480000000     0.724450000000    -0.505816   
O40      O      0.373960000000     0.502800000000     0.789690000000    -0.485813   
O41      O      0.700050000000     0.710780000000     0.880770000000    -0.510019   
O42      O      0.625880000000     0.645960000000     0.903940000000    -0.498048   
O43      O      0.759330000000     0.642860000000     0.859930000000    -0.492796   
O44      O      0.751340000000     0.664510000000     0.987960000000    -0.490379   
O45      O      0.613750000000     0.539000000000     0.904960000000    -0.482499   
O46      O      0.678980000000     0.643890000000     0.021040000000    -0.510105   
O47      O      0.694520000000     0.616980000000     0.800610000000    -0.512286   
O48      O      0.675460000000     0.535720000000     0.944180000000    -0.487321   
O49      O      0.217290000000     0.289630000000     0.195410000000    -0.501058   
O50      O      0.196510000000     0.250730000000     0.291170000000    -0.502289   
O51      O      0.300790000000     0.261990000000     0.243050000000    -0.501355   
O52      O      0.345380000000     0.375730000000     0.212870000000    -0.501272   
O53      O      0.238310000000     0.353740000000     0.353910000000    -0.477636   
O54      O      0.290490000000     0.401180000000     0.212170000000    -0.501017   
O55      O      0.304910000000     0.280300000000     0.346730000000    -0.501112   
O56      O      0.315610000000     0.385720000000     0.364920000000    -0.474918   
O57      O      0.835150000000     0.979600000000     0.131570000000    -0.517523   
O58      O      0.909880000000     0.024960000000     0.166910000000    -0.494365   
O59      O      0.849650000000     0.034810000000     0.283170000000    -0.507139   
O60      O      0.782290000000     0.869590000000     0.214130000000    -0.490595   
O61      O      0.926290000000     0.983950000000     0.280220000000    -0.47347    
O62      O      0.853540000000     0.886140000000     0.180840000000    -0.510352   
O63      O      0.781210000000     0.955750000000     0.280720000000    -0.499851   
O64      O      0.862620000000     0.924340000000     0.333970000000    -0.489376   
O65      O      0.305510000000     0.068040000000     0.802870000000    -0.506024   
O66      O      0.383010000000     0.119260000000     0.822890000000    -0.490355   
O67      O      0.263610000000     0.951120000000     0.855710000000    -0.489418   
O68      O      0.333560000000     0.951130000000     0.788600000000    -0.492935   
O69      O      0.396380000000     0.075300000000     0.941500000000    -0.47291    
O70      O      0.394320000000     0.034350000000     0.767810000000    -0.507335   
O71      O      0.286490000000     0.011160000000     0.935610000000    -0.503318   
O72      O      0.382350000000     0.991260000000     0.924110000000    -0.495035   
O73      O      0.645620000000     0.914340000000     0.927510000000    -0.50734    
O74      O      0.572980000000     0.853920000000     0.961430000000    -0.496635   
O75      O      0.664020000000     0.033580000000     0.959740000000    -0.502264   
O76      O      0.589180000000     0.940770000000     0.836120000000    -0.510695   
O77      O      0.508180000000     0.891300000000     0.960630000000    -0.475538   
O78      O      0.586020000000     0.010770000000     0.879760000000    -0.504507   
O79      O      0.638580000000     0.979680000000     0.045490000000    -0.497283   
O80      O      0.545330000000     0.959970000000     0.028340000000    -0.476928   
O81      O      0.207710000000     0.929800000000     0.411520000000    -0.507334   
O82      O      0.216920000000     0.857870000000     0.393260000000    -0.49221    
O83      O      0.296550000000     0.034670000000     0.416970000000    -0.494927   
O84      O      0.289220000000     0.905410000000     0.486430000000    -0.502813   
O85      O      0.284950000000     0.906690000000     0.288060000000    -0.473833   
O86      O      0.348260000000     0.989900000000     0.465900000000    -0.492301   
O87      O      0.291330000000     0.014370000000     0.313770000000    -0.502631   
O88      O      0.352180000000     0.943870000000     0.342560000000    -0.480794   
O89      O      0.736200000000     0.164360000000     0.574320000000    -0.503925   
O90      O      0.722240000000     0.233650000000     0.562210000000    -0.49474    
O91      O      0.667650000000     0.083550000000     0.428170000000    -0.497248   
O92      O      0.628780000000     0.063250000000     0.547650000000    -0.495721   
O93      O      0.678100000000     0.227560000000     0.444400000000    -0.475405   
O94      O      0.620340000000     0.131010000000     0.588240000000    -0.505107   
O95      O      0.736730000000     0.161770000000     0.431680000000    -0.506444   
O96      O      0.608800000000     0.150860000000     0.448460000000    -0.486109   


