data_structure

_audit_creation_method RASPA-1.0
_audit_creation_date 2023-5-22
_audit_author_name 'Poobodin Mano'

_cell_length_a    46.9367
_cell_length_b    45.8844
_cell_length_c    46.6782
_cell_angle_alpha 90.0864
_cell_angle_beta  89.9584
_cell_angle_gamma 89.8705
_cell_volume      100529

_symmetry_cell_setting          triclinic
_symmetry_space_group_name_Hall 'P 1'
_symmetry_space_group_name_H-M  'P 1'
_symmetry_Int_Tables_number     1

_symmetry_equiv_pos_as_xyz 'x,y,z'

loop_
_atom_site_label
_atom_site_type_symbol
_atom_site_fract_x
_atom_site_fract_y
_atom_site_fract_z
_atom_site_charge
C1       C      0.069510000000     0.381110000000     0.895840000000     0.405866   
C2       C      0.167240000000     0.360600000000     0.893300000000     0.407462   
C3       C      0.119560000000     0.370310000000     0.970620000000     0.405264   
C4       C      0.103300000000     0.295180000000     0.905240000000     0.404247   
C5       C      0.135160000000     0.406790000000     0.184990000000     0.403421   
C6       C      0.145660000000     0.399640000000     0.080070000000     0.405434   
C7       C      0.133050000000     0.475750000000     0.128520000000     0.403222   
C8       C      0.208520000000     0.403280000000     0.138610000000     0.403492   
C9       C      0.173320000000     0.857850000000     0.132460000000     0.402843   
C10      C      0.071610000000     0.865440000000     0.117190000000     0.404392   
C11      C      0.133680000000     0.859630000000     0.052570000000     0.401496   
C12      C      0.117800000000     0.789010000000     0.128680000000     0.404431   
C13      C      0.092930000000     0.577480000000     0.167320000000     0.404219   
C14      C      0.085420000000     0.681570000000     0.166710000000     0.405849   
C15      C      0.017410000000     0.625550000000     0.166860000000     0.40324    
C16      C      0.089210000000     0.626190000000     0.241690000000     0.400129   
C17      C      0.113120000000     0.318060000000     0.366930000000     0.403364   
C18      C      0.105860000000     0.422490000000     0.359680000000     0.407166   
C19      C      0.108960000000     0.368100000000     0.290510000000     0.401738   
C20      C      0.035810000000     0.362650000000     0.361520000000     0.400984   
C21      C      0.409780000000     0.370630000000     0.131320000000     0.405322   
C22      C      0.313870000000     0.363410000000     0.144380000000     0.409945   
C23      C      0.353250000000     0.351230000000     0.062020000000     0.402234   
C24      C      0.366390000000     0.286890000000     0.137040000000     0.408176   
C25      C      0.808010000000     0.635140000000     0.106080000000     0.40518    
C26      C      0.911100000000     0.647970000000     0.125470000000     0.402849   
C27      C      0.870460000000     0.640590000000     0.046870000000     0.401235   
C28      C      0.851800000000     0.713660000000     0.118810000000     0.402355   
C29      C      0.652680000000     0.115660000000     0.832270000000     0.404103   
C30      C      0.656830000000     0.110430000000     0.936060000000     0.40535    
C31      C      0.651960000000     0.040280000000     0.876380000000     0.400986   
C32      C      0.727290000000     0.110760000000     0.884380000000     0.400634   
C33      C      0.607960000000     0.079370000000     0.660730000000     0.405231   
C34      C      0.606910000000     0.184900000000     0.651830000000     0.404374   
C35      C      0.533760000000     0.134310000000     0.658910000000     0.399501   
C36      C      0.610850000000     0.139600000000     0.726970000000     0.404595   
C37      C      0.424440000000     0.128680000000     0.623850000000     0.40634    
C38      C      0.321550000000     0.128890000000     0.631990000000     0.405455   
C39      C      0.373310000000     0.202910000000     0.629510000000     0.402085   
C40      C      0.365390000000     0.132500000000     0.554440000000     0.400378   
C41      C      0.096050000000     0.916010000000     0.650730000000     0.403006   
C42      C      0.111370000000     0.818080000000     0.670760000000     0.403926   
C43      C      0.101270000000     0.881510000000     0.735640000000     0.405866   
C44      C      0.029320000000     0.855480000000     0.667200000000     0.405873   
C45      C      0.638650000000     0.896540000000     0.578990000000     0.403824   
C46      C      0.643240000000     0.891650000000     0.682510000000     0.403599   
C47      C      0.713450000000     0.892560000000     0.627540000000     0.402749   
C48      C      0.641160000000     0.968160000000     0.633940000000     0.403551   
C49      C      0.605720000000     0.830080000000     0.863190000000     0.405628   
C50      C      0.606470000000     0.933080000000     0.869160000000     0.406509   
C51      C      0.603090000000     0.888600000000     0.791000000000     0.401115   
C52      C      0.532410000000     0.880870000000     0.864760000000     0.4031     
C53      C      0.886120000000     0.818960000000     0.152020000000     0.407928   
C54      C      0.891750000000     0.918400000000     0.137770000000     0.407321   
C55      C      0.892560000000     0.881190000000     0.222160000000     0.40249    
C56      C      0.964310000000     0.864900000000     0.154820000000     0.404788   
C57      C      0.599740000000     0.672620000000     0.361530000000     0.40515    
C58      C      0.595440000000     0.568330000000     0.369030000000     0.405819   
C59      C      0.523700000000     0.626410000000     0.368360000000     0.402126   
C60      C      0.591630000000     0.613800000000     0.292430000000     0.403692   
C61      C      0.646200000000     0.392630000000     0.430750000000     0.406635   
C62      C      0.642790000000     0.378910000000     0.329890000000     0.405271   
C63      C      0.642320000000     0.461260000000     0.368950000000     0.401489   
C64      C      0.716910000000     0.389140000000     0.375520000000     0.405935   
C65      C      0.627650000000     0.610440000000     0.182970000000     0.404918   
C66      C      0.620720000000     0.608870000000     0.081110000000     0.405385   
C67      C      0.697750000000     0.604180000000     0.126400000000     0.401921   
C68      C      0.623800000000     0.533750000000     0.131470000000     0.405455   
C69      C      0.588630000000     0.316310000000     0.153180000000     0.404866   
C70      C      0.591490000000     0.423050000000     0.157410000000     0.405162   
C71      C      0.518700000000     0.369970000000     0.159740000000     0.401979   
C72      C      0.596490000000     0.370640000000     0.226200000000     0.401165   
C73      C      0.850420000000     0.886440000000     0.329790000000     0.406448   
C74      C      0.855080000000     0.886100000000     0.433620000000     0.403512   
C75      C      0.855240000000     0.960390000000     0.380320000000     0.401371   
C76      C      0.780240000000     0.889450000000     0.387480000000     0.400995   
C77      C      0.394040000000     0.809040000000     0.370670000000     0.403795   
C78      C      0.388590000000     0.914400000000     0.356960000000     0.40599    
C79      C      0.463750000000     0.862440000000     0.363730000000     0.400167   
C80      C      0.390100000000     0.853240000000     0.292470000000     0.402641   
C81      C      0.571390000000     0.864790000000     0.400620000000     0.406625   
C82      C      0.671660000000     0.852810000000     0.391480000000     0.407117   
C83      C      0.629970000000     0.855390000000     0.470540000000     0.401835   
C84      C      0.610940000000     0.783280000000     0.400020000000     0.401415   
C85      C      0.397940000000     0.313750000000     0.664560000000     0.404576   
C86      C      0.393330000000     0.419750000000     0.663070000000     0.404791   
C87      C      0.393840000000     0.371280000000     0.737000000000     0.400423   
C88      C      0.465710000000     0.368410000000     0.661810000000     0.403172   
C89      C      0.568290000000     0.374310000000     0.614220000000     0.404234   
C90      C      0.670180000000     0.364030000000     0.601670000000     0.406873   
C91      C      0.609300000000     0.294180000000     0.609320000000     0.40095    
C92      C      0.611310000000     0.368280000000     0.537070000000     0.404404   
C93      C      0.168390000000     0.636340000000     0.640090000000     0.407248   
C94      C      0.066730000000     0.633160000000     0.631660000000     0.406598   
C95      C      0.113610000000     0.709240000000     0.632920000000     0.401594   
C96      C      0.125900000000     0.638320000000     0.560790000000     0.399553   
C97      C      0.130140000000     0.616430000000     0.349370000000     0.405444   
C98      C      0.128730000000     0.603740000000     0.450360000000     0.406761   
C99      C      0.133070000000     0.533820000000     0.391090000000     0.403767   
C100     C      0.204180000000     0.605790000000     0.401530000000     0.402611   
C101     C      0.418910000000     0.631350000000     0.416990000000     0.403004   
C102     C      0.314500000000     0.630520000000     0.428750000000     0.403977   
C103     C      0.375300000000     0.632560000000     0.492240000000     0.404182   
C104     C      0.365900000000     0.703670000000     0.415120000000     0.402031   
C105     C      0.350550000000     0.606270000000     0.703450000000     0.407201   
C106     C      0.350430000000     0.600160000000     0.600480000000     0.405398   
C107     C      0.350520000000     0.528740000000     0.659950000000     0.400522   
C108     C      0.277230000000     0.599990000000     0.648880000000     0.400905   
C109     C      0.161250000000     0.894720000000     0.944050000000     0.403571   
C110     C      0.140180000000     0.911680000000     0.842010000000     0.404259   
C111     C      0.150390000000     0.974310000000     0.902760000000     0.403638   
C112     C      0.220570000000     0.899340000000     0.879380000000     0.403285   
C113     C      0.352300000000     0.377170000000     0.844360000000     0.404822   
C114     C      0.346430000000     0.385810000000     0.947500000000     0.406345   
C115     C      0.354580000000     0.456740000000     0.888010000000     0.399917   
C116     C      0.277730000000     0.389620000000     0.893690000000     0.401485   
C117     C      0.426780000000     0.847970000000     0.899270000000     0.407449   
C118     C      0.324240000000     0.857510000000     0.904510000000     0.40373    
C119     C      0.370790000000     0.778790000000     0.904750000000     0.401966   
C120     C      0.378210000000     0.853530000000     0.975820000000     0.401262   
C121     C      0.399870000000     0.668180000000     0.876560000000     0.404736   
C122     C      0.400010000000     0.563800000000     0.886130000000     0.404877   
C123     C      0.397690000000     0.607410000000     0.808180000000     0.402205   
C124     C      0.472850000000     0.617730000000     0.877520000000     0.402405   
C125     C      0.836010000000     0.143950000000     0.895600000000     0.403497   
C126     C      0.932860000000     0.127370000000     0.910700000000     0.406324   
C127     C      0.896300000000     0.211350000000     0.911160000000     0.405364   
C128     C      0.873700000000     0.138470000000     0.979290000000     0.40548    
C129     C      0.685180000000     0.648290000000     0.907860000000     0.404171   
C130     C      0.580090000000     0.654250000000     0.901930000000     0.402977   
C131     C      0.629070000000     0.649910000000     0.974600000000     0.402819   
C132     C      0.636760000000     0.723140000000     0.899250000000     0.403307   
C133     C      0.821860000000     0.854790000000     0.603980000000     0.402913   
C134     C      0.925660000000     0.846420000000     0.616520000000     0.403861   
C135     C      0.869270000000     0.778310000000     0.616910000000     0.402403   
C136     C      0.882290000000     0.849350000000     0.539840000000     0.40417    
C137     C      0.893410000000     0.670680000000     0.659290000000     0.402373   
C138     C      0.880780000000     0.565720000000     0.674350000000     0.407702   
C139     C      0.959560000000     0.608630000000     0.664710000000     0.402625   
C140     C      0.888560000000     0.625600000000     0.737010000000     0.401629   
C141     C      0.855940000000     0.620160000000     0.845490000000     0.406239   
C142     C      0.874770000000     0.604190000000     0.940240000000     0.406335   
C143     C      0.789770000000     0.600300000000     0.906180000000     0.407294   
C144     C      0.860330000000     0.533510000000     0.881480000000     0.40572    
C145     C      0.898900000000     0.316980000000     0.860540000000     0.404686   
C146     C      0.887100000000     0.422990000000     0.848800000000     0.405018   
C147     C      0.964110000000     0.377660000000     0.857270000000     0.402955   
C148     C      0.891970000000     0.363670000000     0.784580000000     0.403635   
C149     C      0.825240000000     0.355750000000     0.400710000000     0.408116   
C150     C      0.927840000000     0.360910000000     0.399750000000     0.406629   
C151     C      0.873190000000     0.354360000000     0.473030000000     0.399934   
C152     C      0.883230000000     0.282290000000     0.402000000000     0.399291   
C153     C      0.854520000000     0.367560000000     0.678270000000     0.406524   
C154     C      0.863380000000     0.387310000000     0.582640000000     0.406047   
C155     C      0.781690000000     0.385310000000     0.627080000000     0.408528   
C156     C      0.851320000000     0.454930000000     0.645060000000     0.403775   
C157     C      0.353710000000     0.889540000000     0.084240000000     0.406094   
C158     C      0.354950000000     0.885460000000     0.187600000000     0.405192   
C159     C      0.356010000000     0.962480000000     0.143620000000     0.399205   
C160     C      0.281750000000     0.892650000000     0.134540000000     0.400952   
C161     C      0.888110000000     0.170590000000     0.368750000000     0.403699   
C162     C      0.898130000000     0.068740000000     0.378910000000     0.405019   
C163     C      0.895640000000     0.113440000000     0.299630000000     0.406127   
C164     C      0.968030000000     0.128160000000     0.370040000000     0.402435   
C165     C      0.106680000000     0.185400000000     0.866440000000     0.407311   
C166     C      0.112890000000     0.079570000000     0.871330000000     0.403025   
C167     C      0.038410000000     0.129430000000     0.870200000000     0.401888   
C168     C      0.109380000000     0.127950000000     0.795980000000     0.401154   
C169     C      0.177850000000     0.133840000000     0.423550000000     0.403473   
C170     C      0.076400000000     0.155100000000     0.401990000000     0.403782   
C171     C      0.113040000000     0.141730000000     0.481400000000     0.40374    
C172     C      0.140830000000     0.214260000000     0.409570000000     0.403616   
C173     C      0.140720000000     0.095620000000     0.688250000000     0.40664    
C174     C      0.137920000000     0.099840000000     0.585100000000     0.405137   
C175     C      0.212630000000     0.093050000000     0.631840000000     0.399906   
C176     C      0.137150000000     0.023450000000     0.638150000000     0.398955   
C177     C      0.858580000000     0.090320000000     0.190910000000     0.404448   
C178     C      0.843110000000     0.105850000000     0.087420000000     0.403836   
C179     C      0.853080000000     0.026780000000     0.131550000000     0.401748   
C180     C      0.780870000000     0.100390000000     0.149000000000     0.403366   
C181     C      0.676290000000     0.134630000000     0.118550000000     0.404968   
C182     C      0.574250000000     0.130650000000     0.118430000000     0.407071   
C183     C      0.621430000000     0.207980000000     0.119460000000     0.402295   
C184     C      0.625520000000     0.137260000000     0.044760000000     0.402827   
C185     C      0.357490000000     0.107100000000     0.343830000000     0.403849   
C186     C      0.363080000000     0.095560000000     0.444940000000     0.405391   
C187     C      0.286420000000     0.099240000000     0.399460000000     0.402725   
C188     C      0.357320000000     0.025410000000     0.386270000000     0.403996   
C189     C      0.397180000000     0.176100000000     0.166160000000     0.406777   
C190     C      0.397340000000     0.071470000000     0.156280000000     0.403997   
C191     C      0.468240000000     0.126230000000     0.162100000000     0.403567   
C192     C      0.396570000000     0.114990000000     0.235570000000     0.402028   
C193     C      0.346010000000     0.121490000000     0.294130000000    -0.0105192  
C194     C      0.395370000000     0.128060000000     0.313010000000    -0.0107955  
C195     C      0.357370000000     0.103650000000     0.268950000000    -0.0105278  
C196     C      0.407530000000     0.111110000000     0.287350000000    -0.0113513  
C197     C      0.523480000000     0.121250000000     0.108430000000    -0.00999759 
C198     C      0.544090000000     0.108100000000     0.156060000000    -0.0106431  
C199     C      0.500680000000     0.139820000000     0.122860000000    -0.00975687 
C200     C      0.520250000000     0.125160000000     0.171260000000    -0.0110848  
C201     C      0.708530000000     0.094360000000     0.132020000000    -0.0108698  
C202     C      0.726940000000     0.146090000000     0.126090000000    -0.0101025  
C203     C      0.729600000000     0.090080000000     0.156710000000    -0.0103127  
C204     C      0.746560000000     0.141200000000     0.151720000000    -0.0106982  
C205     C      0.127390000000     0.142700000000     0.555090000000    -0.0110675  
C206     C      0.128510000000     0.091420000000     0.533980000000    -0.00984694 
C207     C      0.104410000000     0.150820000000     0.533130000000    -0.0104942  
C208     C      0.104350000000     0.100260000000     0.513910000000    -0.0105067  
C209     C      0.228170000000     0.131530000000     0.438440000000    -0.0102624  
C210     C      0.208380000000     0.093440000000     0.405440000000    -0.0112317  
C211     C      0.253270000000     0.136200000000     0.418350000000    -0.0104564  
C212     C      0.235230000000     0.095710000000     0.386610000000    -0.0113574  
C213     C      0.101890000000     0.109680000000     0.721280000000    -0.0105373  
C214     C      0.151200000000     0.097730000000     0.739850000000    -0.00987989 
C215     C      0.099200000000     0.133560000000     0.744130000000    -0.011223   
C216     C      0.148690000000     0.122840000000     0.761140000000    -0.0111672  
C217     C      0.858770000000     0.077640000000     0.242090000000    -0.0101166  
C218     C      0.899150000000     0.106520000000     0.221090000000    -0.0113541  
C219     C      0.857030000000     0.098670000000     0.267180000000    -0.0101673  
C220     C      0.899510000000     0.125880000000     0.248050000000    -0.0109092  
C221     C      0.001260000000     0.149670000000     0.404840000000    -0.0107419  
C222     C      0.019460000000     0.116120000000     0.365940000000    -0.0116304  
C223     C      0.026040000000     0.170180000000     0.399170000000    -0.0101567  
C224     C      0.046030000000     0.135490000000     0.362800000000    -0.0111777  
C225     C      0.360240000000     0.041530000000     0.132520000000    -0.0109255  
C226     C      0.408490000000     0.020730000000     0.142350000000    -0.0104591  
C227     C      0.346210000000     0.015370000000     0.147280000000    -0.0112265  
C228     C      0.395220000000     0.994970000000     0.158010000000    -0.010219   
C229     C      0.891600000000     0.246090000000     0.363740000000    -0.0104551  
C230     C      0.886960000000     0.230290000000     0.415510000000    -0.0113698  
C231     C      0.873130000000     0.220270000000     0.354850000000    -0.0100956  
C232     C      0.869030000000     0.204190000000     0.405750000000    -0.010132   
C233     C      0.878140000000     0.403310000000     0.534340000000    -0.010304   
C234     C      0.887290000000     0.352240000000     0.550130000000    -0.0099294  
C235     C      0.861440000000     0.392440000000     0.508420000000    -0.0101497  
C236     C      0.871220000000     0.340420000000     0.524080000000    -0.0110296  
C237     C      0.843690000000     0.344780000000     0.724920000000    -0.0096704  
C238     C      0.893460000000     0.346150000000     0.707090000000    -0.0092908  
C239     C      0.851530000000     0.362910000000     0.751190000000    -0.00986409 
C240     C      0.902920000000     0.364140000000     0.733010000000    -0.0106452  
C241     C      0.892720000000     0.499950000000     0.856050000000    -0.0106329  
C242     C      0.857840000000     0.480770000000     0.892550000000    -0.0108769  
C243     C      0.884830000000     0.475090000000     0.835930000000    -0.0101641  
C244     C      0.851460000000     0.454790000000     0.872810000000    -0.0111482  
C245     C      0.849630000000     0.622310000000     0.772050000000    -0.00977219 
C246     C      0.901370000000     0.628440000000     0.788020000000    -0.0104256  
C247     C      0.840380000000     0.639450000000     0.798570000000    -0.0101521  
C248     C      0.890560000000     0.645350000000     0.814150000000    -0.0095903  
C249     C      0.878100000000     0.514110000000     0.688740000000    -0.00987763 
C250     C      0.842950000000     0.534340000000     0.653600000000    -0.0110099  
C251     C      0.884470000000     0.488640000000     0.668830000000    -0.0107397  
C252     C      0.847460000000     0.507620000000     0.634210000000    -0.0110627  
C253     C      0.870510000000     0.746550000000     0.659580000000    -0.0107908  
C254     C      0.860220000000     0.725230000000     0.611360000000    -0.0110605  
C255     C      0.893970000000     0.724080000000     0.664520000000    -0.0103552  
C256     C      0.882000000000     0.700800000000     0.616840000000    -0.0114715  
C257     C      0.717690000000     0.612670000000     0.884370000000    -0.0114205  
C258     C      0.736970000000     0.653350000000     0.914970000000    -0.0101083  
C259     C      0.737990000000     0.591220000000     0.899450000000    -0.010623   
C260     C      0.755040000000     0.631490000000     0.931460000000    -0.00989758 
C261     C      0.831910000000     0.105910000000     0.035780000000    -0.010448   
C262     C      0.862250000000     0.145490000000     0.056820000000    -0.0112639  
C263     C      0.853360000000     0.101580000000     0.011640000000    -0.010623   
C264     C      0.882930000000     0.142770000000     0.031410000000    -0.0111486  
C265     C      0.875110000000     0.285000000000     0.896180000000    -0.0116707  
C266     C      0.906120000000     0.263830000000     0.857260000000    -0.0102516  
C267     C      0.889490000000     0.264670000000     0.918050000000    -0.0107749  
C268     C      0.921740000000     0.245530000000     0.879470000000    -0.0100543  
C269     C      0.982650000000     0.114910000000     0.922600000000    -0.00981109 
C270     C      0.963960000000     0.105230000000     0.873660000000    -0.00966778 
C271     C      0.005140000000     0.135600000000     0.910650000000    -0.010096   
C272     C      0.986800000000     0.124970000000     0.860480000000    -0.011036   
C273     C      0.507850000000     0.632180000000     0.914210000000    -0.0106791  
C274     C      0.524460000000     0.609670000000     0.868140000000    -0.0112958  
C275     C      0.528360000000     0.657450000000     0.910090000000    -0.0100786  
C276     C      0.547510000000     0.633330000000     0.865410000000    -0.0115609  
C277     C      0.386220000000     0.843670000000     0.027470000000    -0.0113728  
C278     C      0.379130000000     0.894640000000     0.010080000000    -0.0111592  
C279     C      0.364350000000     0.848720000000     0.051410000000    -0.0107662  
C280     C      0.356110000000     0.899870000000     0.032610000000    -0.0100363  
C281     C      0.362270000000     0.726680000000     0.916190000000    -0.011115   
C282     C      0.372450000000     0.742100000000     0.865970000000    -0.0105885  
C283     C      0.385410000000     0.703100000000     0.914230000000    -0.01088    
C284     C      0.396740000000     0.720080000000     0.863780000000    -0.0102328  
C285     C      0.409020000000     0.511810000000     0.896710000000    -0.0102351  
C286     C      0.361200000000     0.533630000000     0.906490000000    -0.0105628  
C287     C      0.395580000000     0.488630000000     0.877530000000    -0.0106153  
C288     C      0.346980000000     0.510190000000     0.887920000000    -0.0112863  
C289     C      0.110360000000     0.008930000000     0.907530000000    -0.0106913  
C290     C      0.160220000000     0.027120000000     0.909130000000    -0.0106111  
C291     C      0.103700000000     0.027970000000     0.881660000000    -0.00957854 
C292     C      0.153900000000     0.048690000000     0.884790000000    -0.0112243  
C293     C      0.272830000000     0.849910000000     0.898150000000    -0.00964248 
C294     C      0.294470000000     0.900450000000     0.893190000000    -0.0113182  
C295     C      0.252720000000     0.857110000000     0.873520000000    -0.0107924  
C296     C      0.272110000000     0.907450000000     0.870180000000    -0.010897   
C297     C      0.389220000000     0.627210000000     0.733260000000    -0.0105442  
C298     C      0.342430000000     0.613910000000     0.755230000000    -0.0101054  
C299     C      0.404920000000     0.608530000000     0.755540000000    -0.0112296  
C300     C      0.357460000000     0.594190000000     0.776760000000    -0.0103436  
C301     C      0.354680000000     0.587900000000     0.549390000000    -0.0100932  
C302     C      0.362480000000     0.639760000000     0.566940000000    -0.011033   
C303     C      0.378230000000     0.592420000000     0.527350000000    -0.0102753  
C304     C      0.384890000000     0.643810000000     0.543360000000    -0.0105953  
C305     C      0.255190000000     0.597740000000     0.389590000000    -0.0112085  
C306     C      0.239650000000     0.642010000000     0.417310000000    -0.0108631  
C307     C      0.280450000000     0.593700000000     0.410180000000    -0.0115284  
C308     C      0.263290000000     0.636680000000     0.439030000000    -0.0104584  
C309     C      0.109240000000     0.639970000000     0.484720000000    -0.0103175  
C310     C      0.120320000000     0.589140000000     0.500630000000    -0.0102368  
C311     C      0.126990000000     0.652230000000     0.509540000000    -0.0113345  
C312     C      0.138790000000     0.600870000000     0.524960000000    -0.0106386  
C313     C      0.010310000000     0.598260000000     0.675460000000    -0.0110109  
C314     C      0.994070000000     0.603500000000     0.624950000000    -0.0111079  
C315     C      0.033600000000     0.621050000000     0.670750000000    -0.0104688  
C316     C      0.016140000000     0.627250000000     0.619470000000    -0.00990966 
C317     C      0.216990000000     0.649340000000     0.655620000000    -0.00993633 
C318     C      0.199730000000     0.598190000000     0.660910000000    -0.0105303  
C319     C      0.242660000000     0.638940000000     0.638420000000    -0.0101691  
C320     C      0.226250000000     0.586800000000     0.645140000000    -0.0115028  
C321     C      0.745550000000     0.350130000000     0.610520000000    -0.0104429  
C322     C      0.731200000000     0.393290000000     0.640480000000    -0.0104315  
C323     C      0.720880000000     0.356100000000     0.590120000000    -0.0105422  
C324     C      0.705770000000     0.398790000000     0.620600000000    -0.0111403  
C325     C      0.403810000000     0.373560000000     0.789100000000    -0.0115952  
C326     C      0.353820000000     0.380840000000     0.769860000000    -0.0104965  
C327     C      0.391270000000     0.356520000000     0.814490000000    -0.010826   
C328     C      0.342320000000     0.362500000000     0.794460000000    -0.010046   
C329     C      0.540530000000     0.391270000000     0.656390000000    -0.0108507  
C330     C      0.517770000000     0.387440000000     0.608350000000    -0.00946859 
C331     C      0.518050000000     0.370570000000     0.669070000000    -0.0113196  
C332     C      0.496720000000     0.364960000000     0.619430000000    -0.00939401 
C333     C      0.389590000000     0.495370000000     0.673160000000    -0.0103009  
C334     C      0.340820000000     0.475650000000     0.661220000000    -0.0112918  
C335     C      0.403020000000     0.471850000000     0.654420000000    -0.00978626 
C336     C      0.354880000000     0.451230000000     0.643600000000    -0.0107289  
C337     C      0.394670000000     0.869780000000     0.218610000000    -0.0108635  
C338     C      0.344770000000     0.877590000000     0.238630000000    -0.00982794 
C339     C      0.399130000000     0.845350000000     0.240590000000    -0.0110541  
C340     C      0.349610000000     0.851890000000     0.258710000000    -0.0104641  
C341     C      0.498100000000     0.858520000000     0.403440000000    -0.0104877  
C342     C      0.515130000000     0.863970000000     0.352070000000    -0.0112232  
C343     C      0.522020000000     0.878790000000     0.413060000000    -0.0101906  
C344     C      0.539230000000     0.883690000000     0.362830000000    -0.010277   
C345     C      0.367020000000     0.734860000000     0.372100000000    -0.010855   
C346     C      0.359570000000     0.757210000000     0.420420000000    -0.0112274  
C347     C      0.391470000000     0.755720000000     0.366080000000    -0.00988377 
C348     C      0.382360000000     0.780250000000     0.413880000000    -0.0110716  
C349     C      0.393950000000     0.967320000000     0.349860000000    -0.0104167  
C350     C      0.349490000000     0.947270000000     0.372580000000    -0.0112092  
C351     C      0.395370000000     0.990890000000     0.372800000000    -0.0105651  
C352     C      0.349640000000     0.972540000000     0.394240000000    -0.0112889  
C353     C      0.908970000000     0.016910000000     0.388590000000    -0.0105895  
C354     C      0.861220000000     0.037300000000     0.400980000000    -0.0103135  
C355     C      0.895230000000     0.993530000000     0.369850000000    -0.00983    
C356     C      0.846610000000     0.013590000000     0.383050000000    -0.0112446  
C357     C      0.745550000000     0.850750000000     0.398540000000    -0.0106936  
C358     C      0.728910000000     0.902170000000     0.388110000000    -0.0113769  
C359     C      0.721330000000     0.839020000000     0.380060000000    -0.0101913  
C360     C      0.704180000000     0.889640000000     0.370510000000    -0.0104265  
C361     C      0.862600000000     0.896410000000     0.484680000000    -0.00987693 
C362     C      0.866850000000     0.844730000000     0.465270000000    -0.0111727  
C363     C      0.886890000000     0.889770000000     0.505290000000    -0.0104925  
C364     C      0.889550000000     0.838400000000     0.488150000000    -0.0110576  
C365     C      0.613160000000     0.241910000000     0.159690000000    -0.010536   
C366     C      0.627480000000     0.261110000000     0.111580000000    -0.01113    
C367     C      0.588260000000     0.263220000000     0.160780000000    -0.0103019  
C368     C      0.603770000000     0.284160000000     0.113250000000    -0.0111216  
C369     C      0.584020000000     0.475880000000     0.161590000000    -0.00991102 
C370     C      0.629660000000     0.455770000000     0.140290000000    -0.0109601  
C371     C      0.583920000000     0.499710000000     0.138990000000    -0.0104251  
C372     C      0.630230000000     0.481460000000     0.119250000000    -0.0108561  
C373     C      0.630540000000     0.608560000000     0.008150000000    -0.00977484 
C374     C      0.626160000000     0.660460000000     0.026570000000    -0.0110917  
C375     C      0.608810000000     0.599070000000     0.030530000000    -0.00970213 
C376     C      0.605490000000     0.649640000000     0.049760000000    -0.0103255  
C377     C      0.751190000000     0.348390000000     0.377900000000    -0.00995476 
C378     C      0.768040000000     0.398390000000     0.365330000000    -0.0111373  
C379     C      0.773870000000     0.345770000000     0.401010000000    -0.0100039  
C380     C      0.792490000000     0.395590000000     0.387000000000    -0.0107641  
C381     C      0.602250000000     0.358410000000     0.485690000000    -0.0103418  
C382     C      0.618440000000     0.407580000000     0.501690000000    -0.0101193  
C383     C      0.627390000000     0.356300000000     0.464870000000    -0.0108656  
C384     C      0.644320000000     0.405790000000     0.481950000000    -0.010537   
C385     C      0.651550000000     0.361790000000     0.280540000000    -0.00936056 
C386     C      0.603930000000     0.354770000000     0.303040000000    -0.010165   
C387     C      0.638480000000     0.379600000000     0.256380000000    -0.00996253 
C388     C      0.589630000000     0.371670000000     0.278650000000    -0.0108738  
C389     C      0.492290000000     0.644360000000     0.406900000000    -0.010417   
C390     C      0.471340000000     0.623650000000     0.361440000000    -0.0114552  
C391     C      0.470810000000     0.627020000000     0.424350000000    -0.0100764  
C392     C      0.448630000000     0.607810000000     0.379360000000    -0.0109848  
C393     C      0.640760000000     0.618740000000     0.233510000000    -0.0102285  
C394     C      0.591960000000     0.631890000000     0.216250000000    -0.0109791  
C395     C      0.628090000000     0.599710000000     0.256970000000    -0.0099362  
C396     C      0.578690000000     0.614350000000     0.240910000000    -0.0111471  
C397     C      0.649750000000     0.514770000000     0.369830000000    -0.011451   
C398     C      0.602200000000     0.493520000000     0.355820000000    -0.0109113  
C399     C      0.634270000000     0.537380000000     0.388540000000    -0.0106811  
C400     C      0.587290000000     0.515500000000     0.375370000000    -0.0103215  
C401     C      0.610190000000     0.730540000000     0.411450000000    -0.0112673  
C402     C      0.591840000000     0.749080000000     0.364000000000    -0.0106429  
C403     C      0.624770000000     0.705100000000     0.395800000000    -0.0106436  
C404     C      0.607430000000     0.724290000000     0.348750000000    -0.0104096  
C405     C      0.884820000000     0.862080000000     0.297130000000    -0.0107663  
C406     C      0.839980000000     0.884450000000     0.277920000000    -0.0103281  
C407     C      0.902270000000     0.878220000000     0.274310000000    -0.0111202  
C408     C      0.857220000000     0.901610000000     0.255950000000    -0.0107382  
C409     C      0.893820000000     0.993230000000     0.132860000000    -0.00968961 
C410     C      0.842630000000     0.974280000000     0.131260000000    -0.0106729  
C411     C      0.903120000000     0.966170000000     0.116250000000    -0.0101121  
C412     C      0.853550000000     0.947520000000     0.114960000000    -0.00967405 
C413     C      0.499450000000     0.871800000000     0.904890000000    -0.0105326  
C414     C      0.480360000000     0.887610000000     0.857230000000    -0.0116551  
C415     C      0.478830000000     0.846280000000     0.905420000000    -0.0100432  
C416     C      0.457470000000     0.863700000000     0.858860000000    -0.0110536  
C417     C      0.620160000000     0.798140000000     0.903030000000    -0.0104481  
C418     C      0.610830000000     0.777570000000     0.853380000000    -0.0102204  
C419     C      0.644310000000     0.776030000000     0.906750000000    -0.010628   
C420     C      0.635660000000     0.756440000000     0.857640000000    -0.0108935  
C421     C      0.764990000000     0.898170000000     0.638140000000    -0.0112635  
C422     C      0.745990000000     0.851530000000     0.617470000000    -0.010769   
C423     C      0.790820000000     0.896280000000     0.617930000000    -0.0115386  
C424     C      0.770170000000     0.850930000000     0.595700000000    -0.0105314  
C425     C      0.614490000000     0.860860000000     0.547150000000    -0.0110062  
C426     C      0.632450000000     0.908240000000     0.527730000000    -0.010311   
C427     C      0.629330000000     0.844420000000     0.522580000000    -0.0111952  
C428     C      0.648680000000     0.892160000000     0.504200000000    -0.0103812  
C429     C      0.592180000000     0.886920000000     0.738990000000    -0.0115245  
C430     C      0.640430000000     0.903220000000     0.756760000000    -0.0104447  
C431     C      0.606930000000     0.869820000000     0.714770000000    -0.0109773  
C432     C      0.654610000000     0.884640000000     0.733690000000    -0.0102089  
C433     C      0.996990000000     0.827630000000     0.635840000000    -0.0101607  
C434     C      0.976930000000     0.860980000000     0.673500000000    -0.0109851  
C435     C      0.977910000000     0.841630000000     0.613360000000    -0.0102473  
C436     C      0.955780000000     0.873390000000     0.651410000000    -0.0115031  
C437     C      0.099680000000     0.872430000000     0.787920000000    -0.0112205  
C438     C      0.138190000000     0.903700000000     0.765980000000    -0.0105314  
C439     C      0.099060000000     0.892770000000     0.814140000000    -0.0113016  
C440     C      0.135530000000     0.924860000000     0.791000000000    -0.0104648  
C441     C      0.135000000000     0.785310000000     0.635850000000    -0.00996381 
C442     C      0.122060000000     0.767300000000     0.684470000000    -0.00990109 
C443     C      0.116270000000     0.761920000000     0.621910000000    -0.0110033  
C444     C      0.102460000000     0.744290000000     0.671480000000    -0.010136   
C445     C      0.145890000000     0.970340000000     0.637980000000    -0.0109893  
C446     C      0.097130000000     0.991180000000     0.650370000000    -0.00999759 
C447     C      0.131020000000     0.944860000000     0.622940000000    -0.0101458  
C448     C      0.083400000000     0.965660000000     0.634590000000    -0.0102353  
C449     C      0.371670000000     0.082000000000     0.495420000000    -0.0100475  
C450     C      0.383500000000     0.132150000000     0.478340000000    -0.0102998  
C451     C      0.352850000000     0.094610000000     0.519070000000    -0.0105185  
C452     C      0.365820000000     0.145420000000     0.502850000000    -0.0115703  
C453     C      0.382870000000     0.281190000000     0.625200000000    -0.0109858  
C454     C      0.402780000000     0.260810000000     0.671350000000    -0.0101369  
C455     C      0.362160000000     0.255430000000     0.623560000000    -0.0110672  
C456     C      0.380810000000     0.236430000000     0.670220000000    -0.0108145  
C457     C      0.263790000000     0.079400000000     0.629160000000    -0.0116628  
C458     C      0.248040000000     0.132050000000     0.625580000000    -0.0100665  
C459     C      0.289240000000     0.089100000000     0.647660000000    -0.0108391  
C460     C      0.272090000000     0.140620000000     0.645740000000    -0.00983284 
C461     C      0.482700000000     0.130540000000     0.672080000000    -0.0115324  
C462     C      0.497640000000     0.143040000000     0.621510000000    -0.0107164  
C463     C      0.459200000000     0.110800000000     0.659920000000    -0.0107716  
C464     C      0.474930000000     0.122330000000     0.610060000000    -0.0101322  
C465     C      0.648050000000     0.020830000000     0.624060000000    -0.0112247  
C466     C      0.601660000000     0.002400000000     0.643510000000    -0.0111706  
C467     C      0.646980000000     0.046570000000     0.645130000000    -0.0113061  
C468     C      0.601500000000     0.026430000000     0.666070000000    -0.0103008  
C469     C      0.618110000000     0.236620000000     0.660540000000    -0.0095463  
C470     C      0.623010000000     0.215710000000     0.611190000000    -0.0109494  
C471     C      0.598980000000     0.260790000000     0.649230000000    -0.0105151  
C472     C      0.605470000000     0.241240000000     0.599040000000    -0.0116245  
C473     C      0.788610000000     0.159870000000     0.878530000000    -0.0104597  
C474     C      0.804690000000     0.108750000000     0.870520000000    -0.0102995  
C475     C      0.762230000000     0.149340000000     0.894560000000    -0.0100686  
C476     C      0.778180000000     0.097070000000     0.885850000000    -0.0110124  
C477     C      0.597990000000     0.984510000000     0.882420000000    -0.00984575 
C478     C      0.646050000000     0.962130000000     0.889630000000    -0.0102728  
C479     C      0.611050000000     0.008900000000     0.864630000000    -0.0105376  
C480     C      0.659920000000     0.987020000000     0.872740000000    -0.0110946  
C481     C      0.653360000000     0.142140000000     0.757960000000    -0.0101922  
C482     C      0.605200000000     0.151310000000     0.778640000000    -0.0108486  
C483     C      0.659500000000     0.118860000000     0.780310000000    -0.00971375 
C484     C      0.611250000000     0.129710000000     0.802970000000    -0.0108799  
C485     C      0.631670000000     0.098540000000     0.008520000000    -0.0105223  
C486     C      0.618370000000     0.149060000000     0.993380000000    -0.0112072  
C487     C      0.656380000000     0.098260000000     0.987380000000    -0.0100864  
C488     C      0.641910000000     0.148540000000     0.970540000000    -0.0108944  
C489     C      0.893250000000     0.591530000000     0.988170000000    -0.0101273  
C490     C      0.894800000000     0.642700000000     0.971330000000    -0.00934111 
C491     C      0.873390000000     0.599710000000     0.012880000000    -0.00969143 
C492     C      0.875170000000     0.652590000000     0.995690000000    -0.0107649  
C493     C      0.871880000000     0.785990000000     0.112970000000    -0.0100653  
C494     C      0.874200000000     0.768320000000     0.164640000000    -0.0101717  
C495     C      0.846200000000     0.766170000000     0.108200000000    -0.0104922  
C496     C      0.848310000000     0.749060000000     0.158700000000    -0.0110627  
C497     C      0.757620000000     0.637420000000     0.091740000000    -0.00991271 
C498     C      0.775520000000     0.595080000000     0.120660000000    -0.0111543  
C499     C      0.732700000000     0.641270000000     0.112170000000    -0.0104853  
C500     C      0.748520000000     0.596650000000     0.139360000000    -0.0112983  
C501     C      0.380160000000     0.253150000000     0.175820000000    -0.0105879  
C502     C      0.355170000000     0.234360000000     0.132160000000    -0.0106785  
C503     C      0.402360000000     0.228970000000     0.173400000000    -0.0102171  
C504     C      0.376630000000     0.209240000000     0.129950000000    -0.0109043  
C505     C      0.358830000000     0.346880000000     0.981550000000    -0.0110687  
C506     C      0.343450000000     0.397210000000     0.998860000000    -0.0107804  
C507     C      0.369560000000     0.343270000000     0.012500000000    -0.0106959  
C508     C      0.330900000000     0.380530000000     0.024120000000    -0.0108998  
C509     C      0.481730000000     0.367360000000     0.122390000000    -0.00979934 
C510     C      0.468350000000     0.369590000000     0.175170000000    -0.0108138  
C511     C      0.457050000000     0.388010000000     0.115910000000    -0.00997808 
C512     C      0.443470000000     0.389750000000     0.167410000000    -0.0100704  
C513     C      0.984390000000     0.359820000000     0.349710000000    -0.0113709  
C514     C      0.001660000000     0.354020000000     0.400720000000    -0.0106151  
C515     C      0.959430000000     0.378460000000     0.360750000000    -0.0109772  
C516     C      0.977630000000     0.373910000000     0.410850000000    -0.0100204  
C517     C      0.142580000000     0.481180000000     0.398240000000    -0.0111583  
C518     C      0.095190000000     0.498320000000     0.379890000000    -0.0110401  
C519     C      0.143060000000     0.456990000000     0.375560000000    -0.0105705  
C520     C      0.096010000000     0.475170000000     0.356420000000    -0.0102515  
C521     C      0.148550000000     0.267110000000     0.417960000000    -0.0105209  
C522     C      0.149830000000     0.246950000000     0.368570000000    -0.0104771  
C523     C      0.125130000000     0.288810000000     0.409490000000    -0.01111    
C524     C      0.125230000000     0.266550000000     0.359310000000    -0.00974304 
C525     C      0.078880000000     0.622620000000     0.293620000000    -0.0116821  
C526     C      0.129200000000     0.616920000000     0.274480000000    -0.0104838  
C527     C      0.091090000000     0.637940000000     0.320240000000    -0.0107699  
C528     C      0.140250000000     0.633750000000     0.300330000000    -0.0102327  
C529     C      0.963100000000     0.652160000000     0.121680000000    -0.00987229 
C530     C      0.940400000000     0.636010000000     0.168140000000    -0.0116024  
C531     C      0.985580000000     0.628590000000     0.125070000000    -0.0102457  
C532     C      0.965720000000     0.615130000000     0.173080000000    -0.0114456  
C533     C      0.146090000000     0.853270000000     0.974650000000    -0.0112807  
C534     C      0.172160000000     0.895900000000     0.995700000000    -0.0105399  
C535     C      0.125670000000     0.853270000000     0.000440000000    -0.0113931  
C536     C      0.150360000000     0.897940000000     0.019790000000    -0.0105693  
C537     C      0.101910000000     0.711920000000     0.126270000000    -0.0107933  
C538     C      0.082360000000     0.735060000000     0.171270000000    -0.0105087  
C539     C      0.124830000000     0.735590000000     0.124740000000    -0.0108692  
C540     C      0.106000000000     0.757820000000     0.170110000000    -0.0106513  
C541     C      0.230660000000     0.906440000000     0.135040000000    -0.0113265  
C542     C      0.246200000000     0.854240000000     0.126030000000    -0.00989935 
C543     C      0.205740000000     0.894980000000     0.153180000000    -0.0105446  
C544     C      0.222350000000     0.843890000000     0.145630000000    -0.00952471 
C545     C      0.015290000000     0.873430000000     0.166210000000    -0.0109722  
C546     C      0.000720000000     0.847250000000     0.120870000000    -0.00992354 
C547     C      0.037080000000     0.891070000000     0.148810000000    -0.010839   
C548     C      0.020830000000     0.866660000000     0.103830000000    -0.00987648 
C549     C      0.265380000000     0.354720000000     0.162710000000    -0.0091713  
C550     C      0.284150000000     0.405210000000     0.159860000000    -0.00913734 
C551     C      0.241690000000     0.361850000000     0.141520000000    -0.00958441 
C552     C      0.260040000000     0.414060000000     0.139480000000    -0.0109532  
C553     C      0.139670000000     0.529270000000     0.125410000000    -0.0106729  
C554     C      0.090990000000     0.508110000000     0.129870000000    -0.010708   
C555     C      0.134540000000     0.548290000000     0.151940000000    -0.0107864  
C556     C      0.085660000000     0.525320000000     0.157350000000    -0.00990456 
C557     C      0.142980000000     0.407720000000     0.237120000000    -0.00986533 
C558     C      0.098340000000     0.385150000000     0.216650000000    -0.0112545  
C559     C      0.146830000000     0.381220000000     0.256320000000    -0.0104434  
C560     C      0.101040000000     0.360150000000     0.238400000000    -0.0111078  
C561     C      0.107090000000     0.242810000000     0.918100000000    -0.0108874  
C562     C      0.084630000000     0.258290000000     0.871680000000    -0.0102928  
C563     C      0.125830000000     0.220830000000     0.901770000000    -0.0109479  
C564     C      0.104560000000     0.237910000000     0.855350000000    -0.0099228  
C565     C      0.137620000000     0.407170000000     0.004460000000    -0.010379   
C566     C      0.105680000000     0.366930000000     0.021800000000    -0.0108028  
C567     C      0.158230000000     0.400970000000     0.028840000000    -0.0100108  
C568     C      0.125390000000     0.362160000000     0.047630000000    -0.0111775  
C569     C      0.021950000000     0.402460000000     0.904520000000    -0.00992203 
C570     C      0.040340000000     0.397790000000     0.854880000000    -0.00978042 
C571     C      0.997080000000     0.382150000000     0.897970000000    -0.00987676 
C572     C      0.015580000000     0.377740000000     0.846680000000    -0.0110861  
C573     C      0.216140000000     0.342640000000     0.884570000000    -0.0101463  
C574     C      0.202890000000     0.393510000000     0.871250000000    -0.0100366  
C575     C      0.240040000000     0.353770000000     0.903790000000    -0.00996674 
C576     C      0.227490000000     0.405510000000     0.889380000000    -0.0112377  
H1       H      0.395580000000     0.151650000000     0.307610000000     0.0414372  
H2       H      0.344740000000     0.144690000000     0.287370000000     0.0405126  
H3       H      0.343320000000     0.107280000000     0.250120000000     0.0486022  
H4       H      0.409340000000     0.124710000000     0.331950000000     0.0499501  
H5       H      0.428510000000     0.120580000000     0.281410000000     0.0498448  
H6       H      0.411230000000     0.088190000000     0.294130000000     0.0424636  
H7       H      0.324100000000     0.114150000000     0.299500000000     0.0483267  
H8       H      0.356150000000     0.080170000000     0.274670000000     0.0413259  
H9       H      0.537300000000     0.084970000000     0.154230000000     0.0417926  
H10      H      0.514850000000     0.098890000000     0.105460000000     0.0412759  
H11      H      0.481190000000     0.139580000000     0.109330000000     0.0493426  
H12      H      0.563740000000     0.108800000000     0.169320000000     0.0496713  
H13      H      0.514460000000     0.113660000000     0.191380000000     0.0501933  
H14      H      0.528700000000     0.146960000000     0.177220000000     0.0426076  
H15      H      0.528280000000     0.130300000000     0.086890000000     0.0484568  
H16      H      0.508420000000     0.162680000000     0.123950000000     0.0418214  
H17      H      0.739350000000     0.142320000000     0.106110000000     0.0420129  
H18      H      0.718070000000     0.084810000000     0.112300000000     0.0434581  
H19      H      0.736390000000     0.066870000000     0.157580000000     0.0507017  
H20      H      0.719810000000     0.169220000000     0.126170000000     0.0476318  
H21      H      0.765660000000     0.155330000000     0.149640000000     0.0483667  
H22      H      0.734930000000     0.147760000000     0.171480000000     0.040511   
H23      H      0.688740000000     0.082000000000     0.136790000000     0.050329   
H24      H      0.718350000000     0.095250000000     0.177080000000     0.0410873  
H25      H      0.149020000000     0.093060000000     0.522160000000     0.0426564  
H26      H      0.148230000000     0.150820000000     0.547110000000     0.04323    
H27      H      0.106450000000     0.174220000000     0.527390000000     0.0501128  
H28      H      0.125490000000     0.068230000000     0.540150000000     0.0471225  
H29      H      0.105280000000     0.086740000000     0.494150000000     0.0483932  
H30      H      0.083760000000     0.095760000000     0.524840000000     0.0401447  
H31      H      0.122770000000     0.154250000000     0.575540000000     0.0499076  
H32      H      0.083230000000     0.147700000000     0.543370000000     0.040694   
H33      H      0.211550000000     0.075130000000     0.420700000000     0.0411247  
H34      H      0.234410000000     0.115100000000     0.454790000000     0.0404279  
H35      H      0.271850000000     0.143640000000     0.431170000000     0.0486255  
H36      H      0.189780000000     0.087990000000     0.391720000000     0.0492532  
H37      H      0.240830000000     0.073700000000     0.378340000000     0.0494869  
H38      H      0.230010000000     0.109640000000     0.367850000000     0.0423431  
H39      H      0.223450000000     0.152310000000     0.449760000000     0.0490689  
H40      H      0.247680000000     0.153830000000     0.403000000000     0.0427335  
H41      H      0.145020000000     0.077210000000     0.750850000000     0.0414111  
H42      H      0.091120000000     0.089780000000     0.729420000000     0.0420106  
H43      H      0.076580000000     0.135340000000     0.751020000000     0.0503931  
H44      H      0.173860000000     0.095650000000     0.733170000000     0.0477499  
H45      H      0.161930000000     0.117880000000     0.780260000000     0.0491954  
H46      H      0.157360000000     0.142820000000     0.750910000000     0.0414303  
H47      H      0.090370000000     0.116770000000     0.701680000000     0.0499598  
H48      H      0.105310000000     0.154650000000     0.734190000000     0.0418822  
H49      H      0.915500000000     0.089180000000     0.223790000000     0.0413043  
H50      H      0.872780000000     0.059090000000     0.248230000000     0.0406976  
H51      H      0.848560000000     0.086800000000     0.286100000000     0.0488362  
H52      H      0.905340000000     0.119820000000     0.202200000000     0.0491836  
H53      H      0.921910000000     0.131760000000     0.253160000000     0.0490307  
H54      H      0.887900000000     0.146400000000     0.243070000000     0.0423426  
H55      H      0.837130000000     0.068830000000     0.237850000000     0.0494121  
H56      H      0.841680000000     0.116310000000     0.261730000000     0.0426847  
H57      H      0.025060000000     0.097510000000     0.380090000000     0.0420715  
H58      H      0.007160000000     0.134860000000     0.422730000000     0.042701   
H59      H      0.030740000000     0.182620000000     0.419060000000     0.0489473  
H60      H      0.013770000000     0.107010000000     0.344620000000     0.049158   
H61      H      0.064790000000     0.121580000000     0.357690000000     0.0491739  
H62      H      0.042500000000     0.150380000000     0.344360000000     0.0410241  
H63      H      0.982560000000     0.162820000000     0.411790000000     0.0485576  
H64      H      0.019480000000     0.186030000000     0.382400000000     0.0401684  
H65      H      0.411470000000     0.014500000000     0.119500000000     0.0409903  
H66      H      0.361740000000     0.036720000000     0.109210000000     0.0418859  
H67      H      0.325950000000     0.010180000000     0.136050000000     0.0502392  
H68      H      0.429850000000     0.025350000000     0.151550000000     0.0482638  
H69      H      0.409050000000     0.975520000000     0.154850000000     0.0493239  
H70      H      0.394830000000     0.000000000000     0.181320000000     0.0410064  
H71      H      0.346500000000     0.061100000000     0.135300000000     0.0501599  
H72      H      0.340820000000     0.021750000000     0.169640000000     0.0422097  
H73      H      0.909380000000     0.222860000000     0.418090000000     0.0431754  
H74      H      0.914350000000     0.239680000000     0.361370000000     0.0418335  
H75      H      0.878920000000     0.213310000000     0.332780000000     0.0484685  
H76      H      0.879200000000     0.237690000000     0.436830000000     0.0510878  
H77      H      0.872450000000     0.185660000000     0.420680000000     0.0503426  
H78      H      0.846180000000     0.210560000000     0.406820000000     0.041754   
H79      H      0.887480000000     0.264540000000     0.348900000000     0.0487962  
H80      H      0.850530000000     0.227610000000     0.354550000000     0.0408059  
H81      H      0.910250000000     0.353800000000     0.544450000000     0.0414633  
H82      H      0.900780000000     0.406080000000     0.527840000000     0.040819   
H83      H      0.864680000000     0.407900000000     0.490400000000     0.0493061  
H84      H      0.885210000000     0.336680000000     0.568250000000     0.0499449  
H85      H      0.881570000000     0.319820000000     0.516940000000     0.0512658  
H86      H      0.849100000000     0.335120000000     0.530800000000     0.0434234  
H87      H      0.869800000000     0.424970000000     0.541050000000     0.0484083  
H88      H      0.838390000000     0.392580000000     0.513920000000     0.0420102  
H89      H      0.896280000000     0.322670000000     0.712330000000     0.0404748  
H90      H      0.846160000000     0.321340000000     0.730490000000     0.0395414  
H91      H      0.838750000000     0.355120000000     0.769720000000     0.0481653  
H92      H      0.907250000000     0.351280000000     0.688400000000     0.0501811  
H93      H      0.924690000000     0.357030000000     0.739330000000     0.0508233  
H94      H      0.904240000000     0.387390000000     0.726480000000     0.0461026  
H95      H      0.821000000000     0.348650000000     0.719220000000     0.0477767  
H96      H      0.845410000000     0.385960000000     0.747120000000     0.0438039  
H97      H      0.874190000000     0.473820000000     0.908360000000     0.0424128  
H98      H      0.911920000000     0.493400000000     0.868440000000     0.0422871  
H99      H      0.903390000000     0.470010000000     0.821960000000     0.0489148  
H100     H      0.838200000000     0.486560000000     0.904630000000     0.0495648  
H101     H      0.846870000000     0.435260000000     0.886100000000     0.049527   
H102     H      0.831970000000     0.459980000000     0.860270000000     0.0415857  
H103     H      0.898370000000     0.519370000000     0.843040000000     0.0485315  
H104     H      0.867090000000     0.482550000000     0.821950000000     0.0404191  
H105     H      0.906220000000     0.605720000000     0.794720000000     0.0458729  
H106     H      0.846750000000     0.598680000000     0.776430000000     0.0432916  
H107     H      0.818740000000     0.632390000000     0.805280000000     0.0474537  
H108     H      0.921650000000     0.638460000000     0.780660000000     0.0506351  
H109     H      0.905690000000     0.642520000000     0.832250000000     0.0501072  
H110     H      0.889910000000     0.668900000000     0.808550000000     0.0404538  
H111     H      0.835250000000     0.628150000000     0.754010000000     0.0481116  
H112     H      0.839220000000     0.662920000000     0.792740000000     0.039527   
H113     H      0.824220000000     0.530080000000     0.667560000000     0.0416085  
H114     H      0.860980000000     0.507410000000     0.703830000000     0.0404469  
H115     H      0.890510000000     0.469430000000     0.682010000000     0.0487116  
H116     H      0.837960000000     0.553630000000     0.640100000000     0.0487566  
H117     H      0.826850000000     0.501850000000     0.623960000000     0.0495223  
H118     H      0.862540000000     0.513770000000     0.616870000000     0.0421845  
H119     H      0.897430000000     0.519050000000     0.701580000000     0.0489494  
H120     H      0.903060000000     0.494420000000     0.655210000000     0.042472   
H121     H      0.838860000000     0.717080000000     0.617780000000     0.0412946  
H122     H      0.850310000000     0.737910000000     0.668650000000     0.0410243  
H123     H      0.895380000000     0.719570000000     0.687880000000     0.0480203  
H124     H      0.859500000000     0.730110000000     0.588050000000     0.0500408  
H125     H      0.873950000000     0.680210000000     0.607260000000     0.0495195  
H126     H      0.902060000000     0.706510000000     0.605500000000     0.0419144  
H127     H      0.875920000000     0.766900000000     0.671310000000     0.0484239  
H128     H      0.914620000000     0.733570000000     0.657560000000     0.041713   
H129     H      0.750100000000     0.662490000000     0.897300000000     0.0422095  
H130     H      0.728130000000     0.620090000000     0.864290000000     0.0424566  
H131     H      0.745080000000     0.574310000000     0.883910000000     0.0490846  
H132     H      0.731040000000     0.671580000000     0.929510000000     0.049824   
H133     H      0.774180000000     0.642670000000     0.940140000000     0.0486666  
H134     H      0.742340000000     0.623320000000     0.949890000000     0.0409791  
H135     H      0.697770000000     0.601100000000     0.878390000000     0.049288   
H136     H      0.725870000000     0.580140000000     0.916750000000     0.0412346  
H137     H      0.846830000000     0.163230000000     0.051960000000     0.0412237  
H138     H      0.815300000000     0.121500000000     0.028380000000     0.0401599  
H139     H      0.841840000000     0.093840000000     0.992270000000     0.0482275  
H140     H      0.874360000000     0.151940000000     0.076270000000     0.0493755  
H141     H      0.891380000000     0.164730000000     0.026100000000     0.0493077  
H142     H      0.901220000000     0.129010000000     0.038220000000     0.0422793  
H143     H      0.821310000000     0.084770000000     0.040300000000     0.0486609  
H144     H      0.868660000000     0.084260000000     0.018100000000     0.0421797  
H145     H      0.888610000000     0.250480000000     0.848040000000     0.0421676  
H146     H      0.855180000000     0.274380000000     0.888730000000     0.0426156  
H147     H      0.873640000000     0.258130000000     0.934530000000     0.0493157  
H148     H      0.921100000000     0.269280000000     0.839630000000     0.0491807  
H149     H      0.930180000000     0.225480000000     0.869060000000     0.0483352  
H150     H      0.940200000000     0.258290000000     0.887530000000     0.0403997  
H151     H      0.869140000000     0.305760000000     0.906960000000     0.0494115  
H152     H      0.906640000000     0.277120000000     0.928970000000     0.0410995  
H153     H      0.972400000000     0.082570000000     0.874050000000     0.0410222  
H154     H      0.992020000000     0.092650000000     0.923570000000     0.0403149  
H155     H      0.024510000000     0.134140000000     0.924270000000     0.0487798  
H156     H      0.944590000000     0.105480000000     0.859970000000     0.0500399  
H157     H      0.993520000000     0.115650000000     0.839540000000     0.0507101  
H158     H      0.977070000000     0.146660000000     0.856280000000     0.0445045  
H159     H      0.976890000000     0.121600000000     0.944760000000     0.0479987  
H160     H      0.996840000000     0.158260000000     0.912200000000     0.0429739  
H161     H      0.534280000000     0.590350000000     0.878600000000     0.0417823  
H162     H      0.518630000000     0.615180000000     0.927290000000     0.0416491  
H163     H      0.534390000000     0.666100000000     0.931500000000     0.0489182  
H164     H      0.517390000000     0.602940000000     0.846400000000     0.0497321  
H165     H      0.567110000000     0.623500000000     0.856100000000     0.0495209  
H166     H      0.539690000000     0.650070000000     0.850110000000     0.0416031  
H167     H      0.488910000000     0.639980000000     0.926340000000     0.0494161  
H168     H      0.517150000000     0.675090000000     0.898250000000     0.0414893  
H169     H      0.399900000000     0.901770000000     0.019100000000     0.0409621  
H170     H      0.407740000000     0.848420000000     0.036230000000     0.0415608  
H171     H      0.371430000000     0.836810000000     0.070880000000     0.0496037  
H172     H      0.374520000000     0.908290000000     0.990980000000     0.0490506  
H173     H      0.356770000000     0.923180000000     0.039160000000     0.0474737  
H174     H      0.334960000000     0.895700000000     0.022700000000     0.0415123  
H175     H      0.385820000000     0.820350000000     0.020970000000     0.0502109  
H176     H      0.343730000000     0.839080000000     0.044540000000     0.0420853  
H177     H      0.352650000000     0.731540000000     0.858020000000     0.0407546  
H178     H      0.341580000000     0.716620000000     0.910190000000     0.0416149  
H179     H      0.378240000000     0.683590000000     0.926340000000     0.050098   
H180     H      0.377110000000     0.760990000000     0.851860000000     0.0489228  
H181     H      0.398160000000     0.712310000000     0.841240000000     0.0476658  
H182     H      0.417040000000     0.731330000000     0.869020000000     0.0421048  
H183     H      0.360530000000     0.734420000000     0.938700000000     0.0505125  
H184     H      0.404930000000     0.711460000000     0.924910000000     0.0429395  
H185     H      0.361290000000     0.525890000000     0.929060000000     0.041839   
H186     H      0.410420000000     0.502900000000     0.918810000000     0.0409437  
H187     H      0.408390000000     0.468280000000     0.879030000000     0.0489528  
H188     H      0.348430000000     0.554040000000     0.905540000000     0.0501407  
H189     H      0.325770000000     0.504910000000     0.897160000000     0.0504899  
H190     H      0.343490000000     0.519380000000     0.866170000000     0.0427706  
H191     H      0.431040000000     0.516420000000     0.889230000000     0.0481783  
H192     H      0.396620000000     0.496340000000     0.854980000000     0.041237   
H193     H      0.156500000000     0.038570000000     0.929820000000     0.0408368  
H194     H      0.105080000000     0.021440000000     0.927270000000     0.0403877  
H195     H      0.080910000000     0.034610000000     0.882750000000     0.0473726  
H196     H      0.183010000000     0.020540000000     0.908330000000     0.0500436  
H197     H      0.165220000000     0.069480000000     0.889190000000     0.0498656  
H198     H      0.162870000000     0.039560000000     0.864620000000     0.0429665  
H199     H      0.096700000000     0.989170000000     0.907020000000     0.0487257  
H200     H      0.106720000000     0.014800000000     0.861860000000     0.0427768  
H201     H      0.287090000000     0.909980000000     0.913820000000     0.0424657  
H202     H      0.261450000000     0.853720000000     0.918730000000     0.0423566  
H203     H      0.233020000000     0.843870000000     0.875530000000     0.0487719  
H204     H      0.314810000000     0.911360000000     0.887460000000     0.0497657  
H205     H      0.266520000000     0.930990000000     0.871180000000     0.0498873  
H206     H      0.281820000000     0.903090000000     0.848860000000     0.040944   
H207     H      0.278390000000     0.826360000000     0.896930000000     0.04773    
H208     H      0.263370000000     0.851020000000     0.853070000000     0.0406063  
H209     H      0.340030000000     0.635890000000     0.765020000000     0.0411481  
H210     H      0.388130000000     0.649940000000     0.741500000000     0.0417026  
H211     H      0.425600000000     0.619010000000     0.760810000000     0.0497633  
H212     H      0.320750000000     0.605290000000     0.750820000000     0.0480272  
H213     H      0.344850000000     0.593760000000     0.796930000000     0.048904   
H214     H      0.357880000000     0.571670000000     0.767930000000     0.0408893  
H215     H      0.401620000000     0.627410000000     0.712970000000     0.0499331  
H216     H      0.409580000000     0.586930000000     0.745750000000     0.04245    
H217     H      0.342100000000     0.649470000000     0.559410000000     0.0428005  
H218     H      0.333760000000     0.591570000000     0.538800000000     0.0422868  
H219     H      0.374350000000     0.578050000000     0.508580000000     0.0488226  
H220     H      0.369270000000     0.652130000000     0.586260000000     0.0499609  
H221     H      0.384860000000     0.666920000000     0.536240000000     0.0503622  
H222     H      0.406170000000     0.638970000000     0.552680000000     0.0414053  
H223     H      0.355390000000     0.564850000000     0.556720000000     0.0476386  
H224     H      0.398830000000     0.585820000000     0.537190000000     0.0406258  
H225     H      0.247680000000     0.657430000000     0.400830000000     0.0417197  
H226     H      0.262830000000     0.610170000000     0.370660000000     0.0419124  
H227     H      0.299050000000     0.585150000000     0.398010000000     0.049335   
H228     H      0.221320000000     0.652520000000     0.428360000000     0.0486498  
H229     H      0.269760000000     0.657930000000     0.448440000000     0.04876    
H230     H      0.254630000000     0.622970000000     0.456620000000     0.0408717  
H231     H      0.248000000000     0.576010000000     0.381930000000     0.0499163  
H232     H      0.274430000000     0.577030000000     0.426330000000     0.0419218  
H233     H      0.098380000000     0.585870000000     0.509040000000     0.0409547  
H234     H      0.086690000000     0.638580000000     0.491900000000     0.0418204  
H235     H      0.117180000000     0.672970000000     0.517010000000     0.0508576  
H236     H      0.128660000000     0.567570000000     0.493650000000     0.0482957  
H237     H      0.137750000000     0.585490000000     0.543310000000     0.0486713  
H238     H      0.161250000000     0.601610000000     0.517410000000     0.0413916  
H239     H      0.110200000000     0.655260000000     0.466290000000     0.049737   
H240     H      0.148630000000     0.657330000000     0.501270000000     0.0426853  
H241     H      0.003680000000     0.582130000000     0.619100000000     0.0401787  
H242     H      0.019620000000     0.576390000000     0.671100000000     0.0407876  
H243     H      0.052860000000     0.614440000000     0.683020000000     0.0499417  
H244     H      0.975300000000     0.607190000000     0.610900000000     0.0482875  
H245     H      0.023600000000     0.625410000000     0.596910000000     0.0467924  
H246     H      0.005650000000     0.648860000000     0.621990000000     0.0417521  
H247     H      0.003380000000     0.598760000000     0.698240000000     0.0503716  
H248     H      0.026070000000     0.642150000000     0.679770000000     0.0431765  
H249     H      0.204230000000     0.597870000000     0.684300000000     0.0415258  
H250     H      0.223190000000     0.650320000000     0.678600000000     0.0409855  
H251     H      0.260740000000     0.653990000000     0.642520000000     0.0494445  
H252     H      0.181510000000     0.583330000000     0.656760000000     0.0492775  
H253     H      0.232830000000     0.565700000000     0.654810000000     0.0501777  
H254     H      0.220330000000     0.582520000000     0.622460000000     0.042064   
H255     H      0.211080000000     0.671740000000     0.648760000000     0.0481865  
H256     H      0.237330000000     0.640260000000     0.615250000000     0.0416773  
H257     H      0.723730000000     0.379930000000     0.658860000000     0.041985   
H258     H      0.738370000000     0.333990000000     0.626720000000     0.0413458  
H259     H      0.713550000000     0.335080000000     0.580870000000     0.0480137  
H260     H      0.738800000000     0.414500000000     0.649090000000     0.0491616  
H261     H      0.687760000000     0.407640000000     0.633440000000     0.049509   
H262     H      0.712000000000     0.415660000000     0.604720000000     0.0419929  
H263     H      0.763430000000     0.340200000000     0.598250000000     0.0482489  
H264     H      0.728870000000     0.369820000000     0.572220000000     0.0405946  
H265     H      0.352070000000     0.404220000000     0.775930000000     0.0415046  
H266     H      0.407440000000     0.396410000000     0.796120000000     0.0421215  
H267     H      0.404720000000     0.360080000000     0.833770000000     0.049458   
H268     H      0.340180000000     0.377270000000     0.750730000000     0.049122   
H269     H      0.320090000000     0.369260000000     0.799380000000     0.0481052  
H270     H      0.341840000000     0.339350000000     0.787380000000     0.0406095  
H271     H      0.424850000000     0.364010000000     0.783360000000     0.0496054  
H272     H      0.391970000000     0.332910000000     0.809090000000     0.0414363  
H273     H      0.508140000000     0.409460000000     0.611010000000     0.0413521  
H274     H      0.532880000000     0.414030000000     0.659400000000     0.0417454  
H275     H      0.512660000000     0.377860000000     0.691150000000     0.049924   
H276     H      0.521660000000     0.383860000000     0.585110000000     0.0488868  
H277     H      0.476600000000     0.366970000000     0.607040000000     0.0501289  
H278     H      0.505610000000     0.342840000000     0.615390000000     0.0423841  
H279     H      0.560910000000     0.388760000000     0.668280000000     0.0498013  
H280     H      0.527660000000     0.348470000000     0.670640000000     0.042106   
H281     H      0.336280000000     0.467060000000     0.683010000000     0.0419108  
H282     H      0.389320000000     0.487450000000     0.695670000000     0.0410178  
H283     H      0.424720000000     0.466700000000     0.662530000000     0.0485074  
H284     H      0.320140000000     0.481590000000     0.651170000000     0.0504104  
H285     H      0.341590000000     0.431240000000     0.644930000000     0.0498754  
H286     H      0.355550000000     0.458260000000     0.620820000000     0.0423111  
H287     H      0.403140000000     0.515190000000     0.672400000000     0.0489876  
H288     H      0.405280000000     0.480670000000     0.632350000000     0.0414427  
H289     H      0.349050000000     0.898110000000     0.250580000000     0.0421594  
H290     H      0.404930000000     0.889880000000     0.226970000000     0.0427259  
H291     H      0.421950000000     0.844510000000     0.246910000000     0.0504436  
H292     H      0.321980000000     0.877790000000     0.232100000000     0.0476927  
H293     H      0.336210000000     0.854640000000     0.278180000000     0.0488405  
H294     H      0.342650000000     0.831670000000     0.247570000000     0.0408138  
H295     H      0.405790000000     0.863750000000     0.198410000000     0.0498451  
H296     H      0.393750000000     0.824290000000     0.230120000000     0.0414531  
H297     H      0.523770000000     0.841550000000     0.349350000000     0.0435593  
H298     H      0.505290000000     0.835620000000     0.406490000000     0.0417118  
H299     H      0.528340000000     0.873400000000     0.435380000000     0.0475891  
H300     H      0.508070000000     0.871770000000     0.330670000000     0.0501517  
H301     H      0.558030000000     0.881360000000     0.348500000000     0.0501978  
H302     H      0.531760000000     0.906670000000     0.361690000000     0.0411415  
H303     H      0.479310000000     0.862130000000     0.417540000000     0.0490182  
H304     H      0.513720000000     0.901510000000     0.412930000000     0.0402498  
H305     H      0.338440000000     0.766520000000     0.414670000000     0.0412458  
H306     H      0.347020000000     0.744710000000     0.363730000000     0.041081   
H307     H      0.392340000000     0.759870000000     0.342620000000     0.0484382  
H308     H      0.359410000000     0.752610000000     0.443800000000     0.049932   
H309     H      0.375670000000     0.801400000000     0.423430000000     0.0496981  
H310     H      0.402460000000     0.773520000000     0.424610000000     0.0420777  
H311     H      0.370830000000     0.714110000000     0.360360000000     0.0487774  
H312     H      0.411790000000     0.745030000000     0.372440000000     0.041793   
H313     H      0.335040000000     0.953290000000     0.354670000000     0.0412217  
H314     H      0.382510000000     0.976280000000     0.330950000000     0.0405134  
H315     H      0.406060000000     0.010380000000     0.363660000000     0.0483891  
H316     H      0.340550000000     0.927550000000     0.383050000000     0.0491471  
H317     H      0.327300000000     0.978910000000     0.399170000000     0.0492745  
H318     H      0.359480000000     0.964540000000     0.414420000000     0.0420311  
H319     H      0.416010000000     0.961740000000     0.343050000000     0.0481928  
H320     H      0.408690000000     0.982720000000     0.390790000000     0.0417088  
H321     H      0.862730000000     0.029410000000     0.423450000000     0.0414161  
H322     H      0.911640000000     0.007860000000     0.410520000000     0.0405975  
H323     H      0.908600000000     0.973510000000     0.370670000000     0.0485973  
H324     H      0.847880000000     0.057350000000     0.400920000000     0.0499914  
H325     H      0.826210000000     0.007510000000     0.393560000000     0.0504475  
H326     H      0.841430000000     0.022910000000     0.361700000000     0.0434725  
H327     H      0.930480000000     0.022180000000     0.380100000000     0.0480602  
H328     H      0.895130000000     0.001380000000     0.347320000000     0.0416132  
H329     H      0.720940000000     0.907040000000     0.410040000000     0.0429979  
H330     H      0.738460000000     0.850640000000     0.421280000000     0.0414975  
H331     H      0.715040000000     0.817070000000     0.387830000000     0.0478114  
H332     H      0.735850000000     0.923060000000     0.378320000000     0.0501536  
H333     H      0.685520000000     0.904530000000     0.372010000000     0.0500983  
H334     H      0.710960000000     0.888670000000     0.347690000000     0.0415045  
H335     H      0.764100000000     0.835770000000     0.396680000000     0.049301   
H336     H      0.729330000000     0.836640000000     0.357740000000     0.0407683  
H337     H      0.846180000000     0.835860000000     0.472930000000     0.0425309  
H338     H      0.842040000000     0.893690000000     0.496220000000     0.0426336  
H339     H      0.884970000000     0.904050000000     0.524460000000     0.048814   
H340     H      0.872540000000     0.832770000000     0.445320000000     0.0498467  
H341     H      0.888050000000     0.815220000000     0.494870000000     0.0497269  
H342     H      0.910860000000     0.841710000000     0.478270000000     0.0410891  
H343     H      0.864250000000     0.919590000000     0.477950000000     0.0476086  
H344     H      0.907350000000     0.895010000000     0.494430000000     0.0404986  
H345     H      0.647480000000     0.271110000000     0.119680000000     0.041806   
H346     H      0.631750000000     0.252180000000     0.170430000000     0.0413378  
H347     H      0.583910000000     0.268840000000     0.183540000000     0.0487581  
H348     H      0.630990000000     0.254930000000     0.088810000000     0.0503135  
H349     H      0.611340000000     0.304570000000     0.102960000000     0.0493865  
H350     H      0.585240000000     0.276120000000     0.100720000000     0.0418167  
H351     H      0.607460000000     0.221950000000     0.171880000000     0.0488413  
H352     H      0.569060000000     0.252180000000     0.152050000000     0.041153   
H353     H      0.643940000000     0.461060000000     0.158560000000     0.0420612  
H354     H      0.593950000000     0.484640000000     0.181430000000     0.0415149  
H355     H      0.572530000000     0.519110000000     0.147590000000     0.0487884  
H356     H      0.638490000000     0.436120000000     0.129450000000     0.0494088  
H357     H      0.652710000000     0.487590000000     0.114890000000     0.0496216  
H358     H      0.620610000000     0.474080000000     0.098720000000     0.0416805  
H359     H      0.561570000000     0.470130000000     0.166660000000     0.0485994  
H360     H      0.571910000000     0.491690000000     0.120030000000     0.0413362  
H361     H      0.647750000000     0.662100000000     0.036210000000     0.0437697  
H362     H      0.652260000000     0.604430000000     0.016750000000     0.0428173  
H363     H      0.612430000000     0.575820000000     0.036170000000     0.048159   
H364     H      0.619610000000     0.682720000000     0.019830000000     0.0506247  
H365     H      0.607790000000     0.663280000000     0.069320000000     0.0499775  
H366     H      0.583390000000     0.652330000000     0.041600000000     0.0413159  
H367     H      0.627820000000     0.594840000000     0.988700000000     0.0485789  
H368     H      0.587190000000     0.600940000000     0.020970000000     0.0401969  
H369     H      0.776160000000     0.391510000000     0.343980000000     0.0417991  
H370     H      0.759930000000     0.339140000000     0.357670000000     0.0410609  
H371     H      0.780230000000     0.322480000000     0.402820000000     0.0480879  
H372     H      0.761450000000     0.421620000000     0.363800000000     0.0495442  
H373     H      0.811700000000     0.406480000000     0.378120000000     0.0492152  
H374     H      0.786310000000     0.407500000000     0.406830000000     0.0421835  
H375     H      0.732370000000     0.335150000000     0.384130000000     0.0493187  
H376     H      0.764410000000     0.352520000000     0.421850000000     0.0420714  
H377     H      0.600800000000     0.418370000000     0.489810000000     0.040472   
H378     H      0.583770000000     0.367770000000     0.473940000000     0.041692   
H379     H      0.620510000000     0.344220000000     0.445410000000     0.0508278  
H380     H      0.623650000000     0.421310000000     0.520610000000     0.0489216  
H381     H      0.649650000000     0.428110000000     0.474430000000     0.0475286  
H382     H      0.662730000000     0.397470000000     0.494520000000     0.0418898  
H383     H      0.596280000000     0.336210000000     0.493030000000     0.0508563  
H384     H      0.644550000000     0.343360000000     0.475290000000     0.0430103  
H385     H      0.603890000000     0.331230000000     0.297340000000     0.0415176  
H386     H      0.652140000000     0.338550000000     0.273760000000     0.0403521  
H387     H      0.650990000000     0.375640000000     0.236500000000     0.0492274  
H388     H      0.591380000000     0.357630000000     0.323060000000     0.0505417  
H389     H      0.568540000000     0.361690000000     0.274100000000     0.05079    
H390     H      0.585830000000     0.394410000000     0.286010000000     0.0436957  
H391     H      0.673850000000     0.368980000000     0.284320000000     0.0481519  
H392     H      0.640430000000     0.403110000000     0.261840000000     0.0426297  
H393     H      0.462000000000     0.644480000000     0.353670000000     0.0419675  
H394     H      0.483590000000     0.666650000000     0.403480000000     0.04143    
H395     H      0.466580000000     0.638550000000     0.444880000000     0.0490633  
H396     H      0.476660000000     0.610140000000     0.342370000000     0.0498154  
H397     H      0.428410000000     0.606770000000     0.367000000000     0.0493228  
H398     H      0.456090000000     0.585110000000     0.383090000000     0.0420172  
H399     H      0.512290000000     0.646470000000     0.419470000000     0.048803   
H400     H      0.480450000000     0.605510000000     0.429560000000     0.0412443  
H401     H      0.593920000000     0.654940000000     0.223340000000     0.0418102  
H402     H      0.644150000000     0.640950000000     0.242440000000     0.041082   
H403     H      0.642850000000     0.599550000000     0.275590000000     0.0488795  
H404     H      0.577490000000     0.631300000000     0.197420000000     0.049519   
H405     H      0.558930000000     0.625510000000     0.248230000000     0.0499694  
H406     H      0.572560000000     0.592580000000     0.232460000000     0.0421419  
H407     H      0.661880000000     0.609870000000     0.227080000000     0.0485997  
H408     H      0.626510000000     0.577020000000     0.248740000000     0.0414054  
H409     H      0.602590000000     0.502580000000     0.333740000000     0.0413162  
H410     H      0.654130000000     0.524850000000     0.348630000000     0.0427842  
H411     H      0.646760000000     0.557930000000     0.388900000000     0.050142   
H412     H      0.589550000000     0.473080000000     0.355290000000     0.0488436  
H413     H      0.565650000000     0.520230000000     0.366870000000     0.0479677  
H414     H      0.584790000000     0.505420000000     0.396880000000     0.0404541  
H415     H      0.670560000000     0.509300000000     0.379850000000     0.0499154  
H416     H      0.633330000000     0.528810000000     0.410790000000     0.0413157  
H417     H      0.569450000000     0.742200000000     0.367800000000     0.0411178  
H418     H      0.589200000000     0.722850000000     0.419480000000     0.0424972  
H419     H      0.625020000000     0.685670000000     0.410000000000     0.0502078  
H420     H      0.591360000000     0.768400000000     0.349670000000     0.0489049  
H421     H      0.595850000000     0.718640000000     0.328740000000     0.0482411  
H422     H      0.629000000000     0.732140000000     0.342660000000     0.0412357  
H423     H      0.623280000000     0.736780000000     0.430320000000     0.050053   
H424     H      0.647240000000     0.711370000000     0.391470000000     0.0418649  
H425     H      0.833080000000     0.863670000000     0.267800000000     0.0410409  
H426     H      0.879690000000     0.840030000000     0.288690000000     0.0418319  
H427     H      0.920680000000     0.864400000000     0.267850000000     0.0499344  
H428     H      0.820530000000     0.897030000000     0.283690000000     0.0483339  
H429     H      0.843970000000     0.905030000000     0.236500000000     0.0487652  
H430     H      0.862130000000     0.923380000000     0.265190000000     0.0411189  
H431     H      0.897980000000     0.859300000000     0.316730000000     0.0495241  
H432     H      0.910840000000     0.898460000000     0.284150000000     0.0421054  
H433     H      0.839660000000     0.968220000000     0.154120000000     0.0450482  
H434     H      0.898620000000     0.989790000000     0.155940000000     0.0427688  
H435     H      0.925570000000     0.960730000000     0.121650000000     0.0473867  
H436     H      0.821380000000     0.980420000000     0.122580000000     0.0501297  
H437     H      0.839680000000     0.928520000000     0.119700000000     0.0499407  
H438     H      0.852110000000     0.952140000000     0.091610000000     0.0404055  
H439     H      0.906800000000     0.012020000000     0.125450000000     0.0479863  
H440     H      0.902120000000     0.971250000000     0.092980000000     0.0395002  
H441     H      0.470910000000     0.908160000000     0.865620000000     0.0419783  
H442     H      0.489330000000     0.890550000000     0.916120000000     0.0416836  
H443     H      0.473830000000     0.840950000000     0.928100000000     0.0485998  
H444     H      0.486270000000     0.891290000000     0.834460000000     0.0494846  
H445     H      0.437380000000     0.872040000000     0.849250000000     0.0492029  
H446     H      0.464770000000     0.844950000000     0.845630000000     0.0414654  
H447     H      0.519030000000     0.865750000000     0.916910000000     0.0498148  
H448     H      0.489510000000     0.827010000000     0.895670000000     0.0415074  
H449     H      0.590670000000     0.766050000000     0.858620000000     0.0418402  
H450     H      0.600790000000     0.789360000000     0.913670000000     0.0432941  
H451     H      0.646270000000     0.770150000000     0.929760000000     0.0506398  
H452     H      0.609970000000     0.783930000000     0.830420000000     0.0469038  
H453     H      0.631780000000     0.736330000000     0.844920000000     0.0485199  
H454     H      0.655340000000     0.766890000000     0.849310000000     0.0404057  
H455     H      0.626050000000     0.818630000000     0.914290000000     0.0509608  
H456     H      0.664540000000     0.786590000000     0.900050000000     0.0413915  
H457     H      0.752470000000     0.838350000000     0.636360000000     0.0416268  
H458     H      0.771210000000     0.888530000000     0.659060000000     0.0418848  
H459     H      0.809950000000     0.904690000000     0.629250000000     0.0495687  
H460     H      0.726930000000     0.841090000000     0.607790000000     0.0485614  
H461     H      0.774910000000     0.827850000000     0.590130000000     0.048457   
H462     H      0.762870000000     0.862120000000     0.575890000000     0.0411193  
H463     H      0.759630000000     0.921470000000     0.641930000000     0.0497191  
H464     H      0.786750000000     0.910810000000     0.599330000000     0.0416543  
H465     H      0.611110000000     0.914300000000     0.519250000000     0.0413185  
H466     H      0.592110000000     0.865240000000     0.540630000000     0.0419066  
H467     H      0.616090000000     0.825370000000     0.516360000000     0.0499746  
H468     H      0.643890000000     0.928700000000     0.533140000000     0.0487205  
H469     H      0.649950000000     0.906420000000     0.485010000000     0.0489498  
H470     H      0.670780000000     0.888090000000     0.511810000000     0.0414131  
H471     H      0.614010000000     0.846770000000     0.566500000000     0.0498405  
H472     H      0.650040000000     0.835980000000     0.530680000000     0.0422728  
H473     H      0.638360000000     0.925860000000     0.748550000000     0.0415863  
H474     H      0.585490000000     0.908440000000     0.730350000000     0.0423364  
H475     H      0.593100000000     0.869940000000     0.695450000000     0.0497601  
H476     H      0.654520000000     0.903840000000     0.775880000000     0.0490674  
H477     H      0.675560000000     0.894280000000     0.727990000000     0.0485461  
H478     H      0.658590000000     0.862580000000     0.742720000000     0.0408477  
H479     H      0.572640000000     0.875070000000     0.745650000000     0.0495511  
H480     H      0.609440000000     0.846830000000     0.721870000000     0.0415436  
H481     H      0.966010000000     0.843310000000     0.685500000000     0.0413942  
H482     H      0.985790000000     0.808290000000     0.644680000000     0.0406885  
H483     H      0.973310000000     0.825340000000     0.596350000000     0.0490798  
H484     H      0.982670000000     0.878350000000     0.689070000000     0.0487357  
H485     H      0.935290000000     0.878470000000     0.662300000000     0.0496087  
H486     H      0.964630000000     0.894180000000     0.643100000000     0.0421879  
H487     H      0.016910000000     0.819880000000     0.625410000000     0.0482688  
H488     H      0.989730000000     0.859970000000     0.603340000000     0.0420167  
H489     H      0.155910000000     0.888260000000     0.770550000000     0.0426144  
H490     H      0.113370000000     0.853380000000     0.793150000000     0.0425664  
H491     H      0.094450000000     0.879740000000     0.833650000000     0.0494053  
H492     H      0.143920000000     0.916240000000     0.746450000000     0.0481008  
H493     H      0.156290000000     0.936020000000     0.794150000000     0.0486659  
H494     H      0.119420000000     0.941700000000     0.785350000000     0.0401885  
H495     H      0.077790000000     0.864140000000     0.783930000000     0.0489522  
H496     H      0.081300000000     0.908560000000     0.811230000000     0.0410993  
H497     H      0.143580000000     0.757490000000     0.687200000000     0.0409637  
H498     H      0.156970000000     0.776430000000     0.637830000000     0.0415331  
H499     H      0.126360000000     0.754720000000     0.601530000000     0.0509647  
H500     H      0.114030000000     0.773730000000     0.705980000000     0.0484449  
H501     H      0.102400000000     0.724820000000     0.685610000000     0.0496314  
H502     H      0.080420000000     0.753220000000     0.670970000000     0.042729   
H503     H      0.135870000000     0.804830000000     0.621810000000     0.0507611  
H504     H      0.095350000000     0.771940000000     0.616580000000     0.0443042  
H505     H      0.097440000000     0.986110000000     0.673660000000     0.0424142  
H506     H      0.152140000000     0.963200000000     0.659850000000     0.0443404  
H507     H      0.144650000000     0.925070000000     0.624310000000     0.0508933  
H508     H      0.083560000000     0.010830000000     0.647350000000     0.0492556  
H509     H      0.062180000000     0.960980000000     0.644090000000     0.0478103  
H510     H      0.080140000000     0.972130000000     0.611870000000     0.0402802  
H511     H      0.165730000000     0.975700000000     0.626070000000     0.0502558  
H512     H      0.128510000000     0.950530000000     0.599920000000     0.0409954  
H513     H      0.405990000000     0.130490000000     0.485640000000     0.0415492  
H514     H      0.393460000000     0.078820000000     0.504250000000     0.0408383  
H515     H      0.353240000000     0.079590000000     0.537730000000     0.0490117  
H516     H      0.382870000000     0.146980000000     0.459540000000     0.0499739  
H517     H      0.376110000000     0.165930000000     0.510120000000     0.0502126  
H518     H      0.344420000000     0.151100000000     0.494300000000     0.0430934  
H519     H      0.363380000000     0.060300000000     0.488920000000     0.048294   
H520     H      0.330570000000     0.095630000000     0.511040000000     0.0417956  
H521     H      0.423040000000     0.252630000000     0.661880000000     0.0412927  
H522     H      0.401600000000     0.276110000000     0.611470000000     0.042182   
H523     H      0.358490000000     0.249680000000     0.600720000000     0.0503783  
H524     H      0.406920000000     0.266340000000     0.694180000000     0.0477678  
H525     H      0.389620000000     0.216920000000     0.681230000000     0.0489565  
H526     H      0.361550000000     0.243650000000     0.682200000000     0.0415076  
H527     H      0.372300000000     0.300830000000     0.616120000000     0.0500784  
H528     H      0.341420000000     0.262530000000     0.632810000000     0.0421465  
H529     H      0.255480000000     0.135060000000     0.603150000000     0.0420439  
H530     H      0.271290000000     0.077090000000     0.606670000000     0.0418498  
H531     H      0.307770000000     0.074610000000     0.643330000000     0.049189   
H532     H      0.229740000000     0.147040000000     0.629150000000     0.0498503  
H533     H      0.278380000000     0.163570000000     0.641590000000     0.0486091  
H534     H      0.264000000000     0.139350000000     0.668110000000     0.0412325  
H535     H      0.256530000000     0.057590000000     0.636490000000     0.0498876  
H536     H      0.283190000000     0.086550000000     0.670560000000     0.0417021  
H537     H      0.488610000000     0.165470000000     0.621790000000     0.041489   
H538     H      0.473080000000     0.152090000000     0.677240000000     0.0425477  
H539     H      0.440650000000     0.110890000000     0.674740000000     0.0493725  
H540     H      0.516060000000     0.142960000000     0.606520000000     0.0487657  
H541     H      0.467760000000     0.129850000000     0.588610000000     0.0477497  
H542     H      0.484780000000     0.100420000000     0.607390000000     0.0402223  
H543     H      0.490730000000     0.120960000000     0.692410000000     0.0498226  
H544     H      0.467670000000     0.088170000000     0.658820000000     0.0412561  
H545     H      0.589400000000     0.010120000000     0.624590000000     0.0410047  
H546     H      0.638860000000     0.028210000000     0.603350000000     0.0415382  
H547     H      0.655950000000     0.066190000000     0.634520000000     0.0494443  
H548     H      0.590590000000     0.982970000000     0.652310000000     0.0487033  
H549     H      0.579010000000     0.032050000000     0.671200000000     0.0475642  
H550     H      0.611620000000     0.017880000000     0.685900000000     0.0412321  
H551     H      0.670660000000     0.014720000000     0.620130000000     0.0495737  
H552     H      0.660930000000     0.041270000000     0.663660000000     0.041825   
H553     H      0.645960000000     0.221400000000     0.609480000000     0.041625   
H554     H      0.640470000000     0.244610000000     0.660400000000     0.0407681  
H555     H      0.601620000000     0.280410000000     0.662960000000     0.0490685  
H556     H      0.619200000000     0.195900000000     0.598010000000     0.0492514  
H557     H      0.613910000000     0.247050000000     0.577530000000     0.0496506  
H558     H      0.583130000000     0.233760000000     0.596250000000     0.0419025  
H559     H      0.612270000000     0.231740000000     0.683110000000     0.0489858  
H560     H      0.576450000000     0.253570000000     0.651050000000     0.0416961  
H561     H      0.799880000000     0.110140000000     0.847230000000     0.041176   
H562     H      0.782990000000     0.162280000000     0.855510000000     0.0403522  
H563     H      0.744410000000     0.164710000000     0.890210000000     0.0489894  
H564     H      0.822640000000     0.093190000000     0.873380000000     0.0503757  
H565     H      0.771340000000     0.076590000000     0.875130000000     0.0503245  
H566     H      0.784140000000     0.091560000000     0.908250000000     0.043596   
H567     H      0.794960000000     0.181650000000     0.886770000000     0.0478913  
H568     H      0.766730000000     0.150120000000     0.917940000000     0.0419618  
H569     H      0.646430000000     0.968010000000     0.912750000000     0.0418937  
H570     H      0.596980000000     0.991860000000     0.905110000000     0.0412655  
H571     H      0.598130000000     0.029000000000     0.867630000000     0.0496327  
H572     H      0.658830000000     0.941910000000     0.886750000000     0.0503846  
H573     H      0.681170000000     0.991800000000     0.882140000000     0.0502547  
H574     H      0.663260000000     0.979540000000     0.850320000000     0.0429068  
H575     H      0.575840000000     0.980390000000     0.875040000000     0.0482561  
H576     H      0.609780000000     0.002650000000     0.841640000000     0.0414173  
H577     H      0.611140000000     0.173480000000     0.786180000000     0.0415249  
H578     H      0.661220000000     0.163390000000     0.766250000000     0.0408956  
H579     H      0.682690000000     0.119150000000     0.785210000000     0.0476704  
H580     H      0.582000000000     0.151420000000     0.773870000000     0.0500391  
H581     H      0.601860000000     0.138430000000     0.823120000000     0.0499352  
H582     H      0.600140000000     0.108940000000     0.798000000000     0.0426706  
H583     H      0.665370000000     0.136980000000     0.738050000000     0.0491965  
H584     H      0.654320000000     0.097160000000     0.771050000000     0.0425789  
H585     H      0.598180000000     0.141930000000     0.983120000000     0.0419055  
H586     H      0.612700000000     0.089020000000     0.997760000000     0.0413024  
H587     H      0.659920000000     0.075480000000     0.980020000000     0.0484818  
H588     H      0.615310000000     0.171780000000     0.001110000000     0.0501943  
H589     H      0.634400000000     0.160640000000     0.951340000000     0.0496929  
H590     H      0.660710000000     0.160310000000     0.979210000000     0.0417792  
H591     H      0.637090000000     0.084490000000     0.027120000000     0.0493656  
H592     H      0.675940000000     0.105540000000     0.998740000000     0.0413786  
H593     H      0.917230000000     0.644700000000     0.978750000000     0.0404362  
H594     H      0.915610000000     0.593280000000     0.995870000000     0.0396742  
H595     H      0.879010000000     0.586150000000     0.031790000000     0.0483416  
H596     H      0.891950000000     0.657250000000     0.952520000000     0.0499284  
H597     H      0.882110000000     0.674500000000     0.003090000000     0.0511144  
H598     H      0.853190000000     0.654860000000     0.987090000000     0.0459724  
H599     H      0.889440000000     0.568550000000     0.981690000000     0.047891   
H600     H      0.851190000000     0.594160000000     0.006640000000     0.0434742  
H601     H      0.893750000000     0.754700000000     0.162820000000     0.0419433  
H602     H      0.891200000000     0.774680000000     0.104730000000     0.0442967  
H603     H      0.845500000000     0.759130000000     0.085410000000     0.0509836  
H604     H      0.872890000000     0.776480000000     0.187050000000     0.0467413  
H605     H      0.849080000000     0.729550000000     0.172760000000     0.0483432  
H606     H      0.828780000000     0.761680000000     0.164150000000     0.0400238  
H607     H      0.868930000000     0.806150000000     0.100100000000     0.0507212  
H608     H      0.826560000000     0.778980000000     0.112730000000     0.0410261  
H609     H      0.771910000000     0.578550000000     0.103610000000     0.0414228  
H610     H      0.750740000000     0.623190000000     0.073730000000     0.0407183  
H611     H      0.714620000000     0.651170000000     0.100240000000     0.0490263  
H612     H      0.793720000000     0.587480000000     0.133950000000     0.048569   
H613     H      0.741860000000     0.574170000000     0.145130000000     0.0497286  
H614     H      0.754050000000     0.608170000000     0.159580000000     0.041864   
H615     H      0.763310000000     0.659040000000     0.082690000000     0.0496701  
H616     H      0.739060000000     0.656680000000     0.129420000000     0.0425718  
H617     H      0.336370000000     0.226550000000     0.144440000000     0.0417324  
H618     H      0.362960000000     0.245620000000     0.190430000000     0.0410294  
H619     H      0.409650000000     0.223080000000     0.195310000000     0.0480122  
H620     H      0.347830000000     0.240340000000     0.110300000000     0.0489365  
H621     H      0.365460000000     0.189570000000     0.121770000000     0.0499836  
H622     H      0.393160000000     0.215290000000     0.113970000000     0.0424933  
H623     H      0.390190000000     0.272670000000     0.185680000000     0.0486816  
H624     H      0.421040000000     0.237560000000     0.161440000000     0.0412572  
H625     H      0.363270000000     0.408350000000     0.005870000000     0.0430672  
H626     H      0.375670000000     0.339440000000     0.966430000000     0.0461449  
H627     H      0.391160000000     0.353010000000     0.014260000000     0.0453918  
H628     H      0.328020000000     0.414360000000     0.992270000000     0.0471828  
H629     H      0.325970000000     0.396280000000     0.041580000000     0.0476593  
H630     H      0.310500000000     0.370330000000     0.017420000000     0.0425283  
H631     H      0.340100000000     0.332470000000     0.978260000000     0.0446925  
H632     H      0.371810000000     0.319650000000     0.017380000000     0.0464809  
H633     H      0.460060000000     0.346990000000     0.177090000000     0.0434754  
H634     H      0.474500000000     0.344640000000     0.118460000000     0.0421229  
H635     H      0.449150000000     0.384100000000     0.093790000000     0.0480995  
H636     H      0.476820000000     0.376110000000     0.196470000000     0.0511882  
H637     H      0.425750000000     0.386590000000     0.182900000000     0.0500014  
H638     H      0.450900000000     0.412680000000     0.169220000000     0.0413631  
H639     H      0.499430000000     0.371980000000     0.107230000000     0.0489891  
H640     H      0.465130000000     0.410760000000     0.117040000000     0.0403337  
H641     H      0.994540000000     0.331030000000     0.402890000000     0.041172   
H642     H      0.976730000000     0.337060000000     0.347040000000     0.0415523  
H643     H      0.940560000000     0.375050000000     0.346770000000     0.0493352  
H644     H      0.020370000000     0.357120000000     0.414980000000     0.0495447  
H645     H      0.971830000000     0.368310000000     0.433270000000     0.0483159  
H646     H      0.985550000000     0.396740000000     0.410700000000     0.0410638  
H647     H      0.990960000000     0.367930000000     0.328270000000     0.0497493  
H648     H      0.965690000000     0.401760000000     0.359240000000     0.0416346  
H649     H      0.083340000000     0.489340000000     0.398520000000     0.0413853  
H650     H      0.133650000000     0.471960000000     0.418350000000     0.0420794  
H651     H      0.153740000000     0.437460000000     0.384700000000     0.0497109  
H652     H      0.083250000000     0.517610000000     0.371890000000     0.0484654  
H653     H      0.073810000000     0.468400000000     0.351490000000     0.0476339  
H654     H      0.105160000000     0.485090000000     0.336740000000     0.0407552  
H655     H      0.164790000000     0.488190000000     0.402730000000     0.049987   
H656     H      0.156120000000     0.464610000000     0.357160000000     0.0420921  
H657     H      0.170150000000     0.258590000000     0.364320000000     0.0401673  
H658     H      0.169510000000     0.277940000000     0.414930000000     0.0406071  
H659     H      0.129230000000     0.309940000000     0.420420000000     0.0499815  
H660     H      0.149740000000     0.226660000000     0.355530000000     0.0485216  
H661     H      0.128520000000     0.272730000000     0.336500000000     0.0474452  
H662     H      0.105070000000     0.253940000000     0.360650000000     0.0430662  
H663     H      0.146390000000     0.261520000000     0.441020000000     0.0501287  
H664     H      0.104430000000     0.280470000000     0.417620000000     0.0434785  
H665     H      0.131320000000     0.593210000000     0.278920000000     0.0420804  
H666     H      0.074980000000     0.599390000000     0.299100000000     0.0424242  
H667     H      0.077480000000     0.632980000000     0.339100000000     0.0494811  
H668     H      0.142950000000     0.622030000000     0.255750000000     0.0494729  
H669     H      0.162510000000     0.626900000000     0.304980000000     0.0481073  
H670     H      0.140550000000     0.657320000000     0.294790000000     0.0402923  
H671     H      0.057980000000     0.632630000000     0.288200000000     0.0489152  
H672     H      0.090240000000     0.661850000000     0.316500000000     0.0409261  
H673     H      0.944360000000     0.656240000000     0.180640000000     0.041031   
H674     H      0.971600000000     0.672930000000     0.130500000000     0.0419535  
H675     H      0.005090000000     0.635210000000     0.113280000000     0.0496228  
H676     H      0.920680000000     0.625920000000     0.176780000000     0.0488288  
H677     H      0.970770000000     0.614370000000     0.196330000000     0.0493371  
H678     H      0.959000000000     0.592910000000     0.166440000000     0.0417376  
H679     H      0.959040000000     0.655370000000     0.098430000000     0.0490804  
H680     H      0.977480000000     0.608170000000     0.115140000000     0.0417958  
H681     H      0.190260000000     0.882160000000     0.003110000000     0.0404776  
H682     H      0.163370000000     0.837270000000     0.979000000000     0.0410156  
H683     H      0.120220000000     0.830380000000     0.005940000000     0.0495549  
H684     H      0.180510000000     0.918080000000     0.991190000000     0.0488045  
H685     H      0.160990000000     0.907110000000     0.039070000000     0.0484292  
H686     H      0.133240000000     0.913330000000     0.013210000000     0.0425371  
H687     H      0.134440000000     0.845730000000     0.955290000000     0.0495238  
H688     H      0.105620000000     0.864350000000     0.993890000000     0.0421334  
H689     H      0.063050000000     0.744280000000     0.160850000000     0.0410101  
H690     H      0.083920000000     0.718550000000     0.112200000000     0.0421097  
H691     H      0.129820000000     0.740180000000     0.101900000000     0.0498941  
H692     H      0.077080000000     0.730630000000     0.194080000000     0.0471911  
H693     H      0.098120000000     0.778360000000     0.180030000000     0.0485035  
H694     H      0.124220000000     0.749820000000     0.183150000000     0.0413077  
H695     H      0.110830000000     0.691270000000     0.117560000000     0.0505452  
H696     H      0.144500000000     0.726990000000     0.134990000000     0.0424084  
H697     H      0.238550000000     0.853250000000     0.103510000000     0.0424853  
H698     H      0.222580000000     0.911000000000     0.113110000000     0.042852   
H699     H      0.187220000000     0.909980000000     0.151090000000     0.0501611  
H700     H      0.264530000000     0.839000000000     0.128050000000     0.0497107  
H701     H      0.215750000000     0.821520000000     0.139340000000     0.0485707  
H702     H      0.230730000000     0.842900000000     0.167890000000     0.0410185  
H703     H      0.238180000000     0.927390000000     0.144310000000     0.0503994  
H704     H      0.212510000000     0.894880000000     0.176000000000     0.0416823  
H705     H      0.012160000000     0.826750000000     0.126370000000     0.0419728  
H706     H      0.026590000000     0.854570000000     0.175950000000     0.0424122  
H707     H      0.055970000000     0.895830000000     0.162360000000     0.049699   
H708     H      0.982230000000     0.841460000000     0.107150000000     0.049643   
H709     H      0.027850000000     0.855040000000     0.084130000000     0.0488714  
H710     H      0.008920000000     0.886510000000     0.097150000000     0.0412691  
H711     H      0.006920000000     0.887200000000     0.183950000000     0.0497939  
H712     H      0.027030000000     0.912180000000     0.142860000000     0.0416456  
H713     H      0.277120000000     0.409850000000     0.182170000000     0.0406633  
H714     H      0.257320000000     0.359030000000     0.184740000000     0.0398105  
H715     H      0.222560000000     0.348860000000     0.147270000000     0.0489909  
H716     H      0.303360000000     0.418600000000     0.155400000000     0.0494056  
H717     H      0.253460000000     0.436810000000     0.144460000000     0.0508096  
H718     H      0.268500000000     0.413800000000     0.117220000000     0.0452003  
H719     H      0.270980000000     0.331220000000     0.161190000000     0.0478532  
H720     H      0.248650000000     0.354950000000     0.119760000000     0.0445425  
H721     H      0.083320000000     0.521330000000     0.111450000000     0.0407899  
H722     H      0.133540000000     0.542120000000     0.106190000000     0.041451   
H723     H      0.145220000000     0.569650000000     0.148820000000     0.050828   
H724     H      0.078510000000     0.487560000000     0.130410000000     0.0487737  
H725     H      0.062580000000     0.530700000000     0.158690000000     0.0481388  
H726     H      0.091120000000     0.511270000000     0.175950000000     0.0419129  
H727     H      0.162730000000     0.523960000000     0.123650000000     0.0503421  
H728     H      0.144800000000     0.537490000000     0.170600000000     0.0427099  
H729     H      0.083240000000     0.401530000000     0.225560000000     0.0416758  
H730     H      0.131370000000     0.424840000000     0.249350000000     0.0414353  
H731     H      0.159020000000     0.387640000000     0.275730000000     0.0494234  
H732     H      0.088970000000     0.376600000000     0.196460000000     0.049844   
H733     H      0.079430000000     0.352890000000     0.245010000000     0.0502675  
H734     H      0.111710000000     0.341520000000     0.227510000000     0.0420819  
H735     H      0.164350000000     0.416410000000     0.231480000000     0.0489531  
H736     H      0.159550000000     0.364630000000     0.244480000000     0.0417341  
H737     H      0.064540000000     0.246370000000     0.876300000000     0.0410194  
H738     H      0.087780000000     0.231180000000     0.925760000000     0.0416609  
H739     H      0.129440000000     0.201310000000     0.915380000000     0.0492442  
H740     H      0.079290000000     0.277300000000     0.857950000000     0.0488118  
H741     H      0.094050000000     0.230790000000     0.835200000000     0.0490509  
H742     H      0.124030000000     0.250300000000     0.849440000000     0.0415396  
H743     H      0.118840000000     0.250860000000     0.937190000000     0.0498439  
H744     H      0.146840000000     0.231190000000     0.897700000000     0.0422558  
H745     H      0.088150000000     0.381760000000     0.028550000000     0.0421794  
H746     H      0.122660000000     0.424620000000     0.011440000000     0.0422169  
H747     H      0.169600000000     0.421420000000     0.034430000000     0.0494144  
H748     H      0.096010000000     0.345760000000     0.015550000000     0.0500911  
H749     H      0.112360000000     0.355790000000     0.066500000000     0.0494606  
H750     H      0.139980000000     0.343740000000     0.042540000000     0.0420076  
H751     H      0.149800000000     0.415420000000     0.985730000000     0.0488717  
H752     H      0.174350000000     0.384930000000     0.021190000000     0.0408704  
H753     H      0.033990000000     0.420630000000     0.850100000000     0.0405178  
H754     H      0.015030000000     0.425220000000     0.900090000000     0.0395276  
H755     H      0.978150000000     0.389670000000     0.910290000000     0.0478553  
H756     H      0.059330000000     0.392380000000     0.841630000000     0.049905   
H757     H      0.009180000000     0.382560000000     0.824250000000     0.0507325  
H758     H      0.023280000000     0.354810000000     0.847310000000     0.0447871  
H759     H      0.027580000000     0.400960000000     0.927610000000     0.0478983  
H760     H      0.002620000000     0.359910000000     0.905640000000     0.0427384  
H761     H      0.210730000000     0.390550000000     0.848940000000     0.0413328  
H762     H      0.225120000000     0.338530000000     0.862880000000     0.0407633  
H763     H      0.257650000000     0.337530000000     0.903690000000     0.0491689  
H764     H      0.185210000000     0.409660000000     0.870810000000     0.0496478  
H765     H      0.236390000000     0.425080000000     0.878620000000     0.05062    
H766     H      0.218730000000     0.412560000000     0.910420000000     0.0433419  
H767     H      0.208020000000     0.321610000000     0.893050000000     0.0478094  
H768     H      0.231800000000     0.355380000000     0.926090000000     0.0419425  
In1      In     0.115050000000     0.351680000000     0.916070000000     2.41319    
In2      In     0.154560000000     0.421560000000     0.132770000000     2.45213    
In3      In     0.123850000000     0.843170000000     0.107280000000     2.42438    
In4      In     0.071280000000     0.628300000000     0.186680000000     2.41688    
In5      In     0.090740000000     0.367660000000     0.345160000000     2.41659    
In6      In     0.360990000000     0.342450000000     0.118620000000     2.41087    
In7      In     0.860270000000     0.658640000000     0.100680000000     2.43839    
In8      In     0.672150000000     0.094800000000     0.882510000000     2.43121    
In9      In     0.589400000000     0.133660000000     0.673800000000     2.41546    
In10     In     0.371580000000     0.147600000000     0.610010000000     2.40786    
In11     In     0.083670000000     0.868290000000     0.681910000000     2.40578    
In12     In     0.659220000000     0.912280000000     0.630760000000     2.4093     
In13     In     0.586890000000     0.882980000000     0.846290000000     2.41297    
In14     In     0.908480000000     0.870890000000     0.167380000000     2.40742    
In15     In     0.577360000000     0.620120000000     0.348120000000     2.40872    
In16     In     0.662010000000     0.406430000000     0.376890000000     2.42244    
In17     In     0.642400000000     0.589250000000     0.130980000000     2.41614    
In18     In     0.574280000000     0.369490000000     0.173250000000     2.44394    
In19     In     0.835420000000     0.905290000000     0.382580000000     2.41215    
In20     In     0.408920000000     0.860240000000     0.346530000000     2.41905    
In21     In     0.621050000000     0.839090000000     0.415610000000     2.40313    
In22     In     0.412150000000     0.367830000000     0.682290000000     2.42945    
In23     In     0.615370000000     0.349780000000     0.591440000000     2.42632    
In24     In     0.118620000000     0.653250000000     0.616260000000     2.41367    
In25     In     0.148840000000     0.590040000000     0.397730000000     2.39941    
In26     In     0.368200000000     0.649590000000     0.437600000000     2.42685    
In27     In     0.332400000000     0.584050000000     0.653110000000     2.41884    
In28     In     0.168020000000     0.919490000000     0.892030000000     2.42496    
In29     In     0.333750000000     0.402210000000     0.893410000000     2.41211    
In30     In     0.374940000000     0.835010000000     0.920940000000     2.41216    
In31     In     0.417600000000     0.614100000000     0.862000000000     2.41441    
In32     In     0.884310000000     0.155500000000     0.924820000000     2.40551    
In33     In     0.632700000000     0.668640000000     0.920140000000     2.43868    
In34     In     0.874350000000     0.832290000000     0.594570000000     2.41941    
In35     In     0.905550000000     0.618090000000     0.682510000000     2.42058    
In36     In     0.844830000000     0.589030000000     0.893200000000     2.40607    
In37     In     0.910270000000     0.370150000000     0.838760000000     2.43679    
In38     In     0.877660000000     0.338640000000     0.417680000000     2.41814    
In39     In     0.837260000000     0.399170000000     0.632870000000     2.41004    
In40     In     0.337200000000     0.907410000000     0.136990000000     2.41586    
In41     In     0.913220000000     0.119730000000     0.354290000000     2.4077     
In42     In     0.092480000000     0.130610000000     0.851140000000     2.42488    
In43     In     0.127000000000     0.160790000000     0.428700000000     2.43554    
In44     In     0.157100000000     0.078340000000     0.635440000000     2.41692    
In45     In     0.834380000000     0.081660000000     0.139290000000     2.43792    
In46     In     0.624490000000     0.152570000000     0.100510000000     2.41988    
In47     In     0.341030000000     0.081540000000     0.393300000000     2.40385    
In48     In     0.414140000000     0.121910000000     0.180800000000     2.41955    
N1       N      0.387360000000     0.111140000000     0.263090000000    -0.166099   
N2       N      0.365820000000     0.118990000000     0.318360000000    -0.165954   
N3       N      0.495460000000     0.129260000000     0.152220000000    -0.165262   
N4       N      0.548590000000     0.119900000000     0.127130000000    -0.166549   
N5       N      0.753710000000     0.110110000000     0.153320000000    -0.165392   
N6       N      0.702770000000     0.125570000000     0.126780000000    -0.166471   
N7       N      0.106590000000     0.131570000000     0.508090000000    -0.165567   
N8       N      0.129630000000     0.110820000000     0.559220000000    -0.166557   
N9       N      0.259110000000     0.109220000000     0.402260000000    -0.165485   
N10      N      0.203810000000     0.120400000000     0.421980000000    -0.165677   
N11      N      0.118530000000     0.127640000000     0.768210000000    -0.165145   
N12      N      0.131980000000     0.102470000000     0.715340000000    -0.16648    
N13      N      0.885210000000     0.111590000000     0.272380000000    -0.165804   
N14      N      0.871190000000     0.092550000000     0.217180000000    -0.165796   
N15      N      0.050530000000     0.153210000000     0.388710000000    -0.165744   
N16      N      0.995440000000     0.132130000000     0.379060000000    -0.165802   
N17      N      0.365740000000     0.990140000000     0.148160000000    -0.165017   
N18      N      0.389100000000     0.045840000000     0.143960000000    -0.166024   
N19      N      0.876330000000     0.196810000000     0.376000000000    -0.165443   
N20      N      0.886220000000     0.253820000000     0.393960000000    -0.165222   
N21      N      0.869970000000     0.362370000000     0.501010000000    -0.164723   
N22      N      0.876490000000     0.381440000000     0.557190000000    -0.166681   
N23      N      0.882480000000     0.361720000000     0.757020000000    -0.165285   
N24      N      0.863270000000     0.352040000000     0.701550000000    -0.166039   
N25      N      0.875220000000     0.449890000000     0.852780000000    -0.165929   
N26      N      0.869160000000     0.505640000000     0.876140000000    -0.166151   
N27      N      0.861710000000     0.635460000000     0.821130000000    -0.166127   
N28      N      0.879890000000     0.627530000000     0.764880000000    -0.164408   
N29      N      0.859760000000     0.482910000000     0.650240000000    -0.165939   
N30      N      0.868060000000     0.539110000000     0.671820000000    -0.166411   
N31      N      0.888400000000     0.697530000000     0.647630000000    -0.165929   
N32      N      0.866940000000     0.751150000000     0.628660000000    -0.165225   
N33      N      0.762090000000     0.606980000000     0.912410000000    -0.166764   
N34      N      0.712130000000     0.638320000000     0.902620000000    -0.165769   
N35      N      0.869150000000     0.128780000000     0.006570000000    -0.166364   
N36      N      0.846340000000     0.118210000000     0.061000000000    -0.165821   
N37      N      0.902340000000     0.239370000000     0.903450000000    -0.166264   
N38      N      0.893780000000     0.289770000000     0.871190000000    -0.166093   
N39      N      0.011080000000     0.128880000000     0.880250000000    -0.164801   
N40      N      0.958140000000     0.114780000000     0.903130000000    -0.166047   
N41      N      0.553090000000     0.647670000000     0.893160000000    -0.165665   
N42      N      0.500600000000     0.619900000000     0.886050000000    -0.165262   
N43      N      0.359840000000     0.880050000000     0.057160000000    -0.166759   
N44      N      0.380670000000     0.863400000000     0.003330000000    -0.165196   
N45      N      0.392520000000     0.695960000000     0.884190000000    -0.165943   
N46      N      0.368510000000     0.750450000000     0.896090000000    -0.164683   
N47      N      0.365440000000     0.484210000000     0.885380000000    -0.165343   
N48      N      0.390760000000     0.537860000000     0.896950000000    -0.166092   
N49      N      0.122990000000     0.053320000000     0.880670000000    -0.16599    
N50      N      0.140880000000     0.002080000000     0.907300000000    -0.165302   
N51      N      0.247130000000     0.888570000000     0.873740000000    -0.165711   
N52      N      0.298270000000     0.868710000000     0.897170000000    -0.16632    
N53      N      0.387010000000     0.604090000000     0.781150000000    -0.165676   
N54      N      0.360060000000     0.616200000000     0.729310000000    -0.166403   
N55      N      0.379470000000     0.623410000000     0.519730000000    -0.165      
N56      N      0.357570000000     0.608650000000     0.573380000000    -0.166581   
N57      N      0.287110000000     0.621090000000     0.425260000000    -0.165923   
N58      N      0.231990000000     0.614370000000     0.403320000000    -0.165283   
N59      N      0.129670000000     0.630610000000     0.532760000000    -0.165035   
N60      N      0.119390000000     0.610570000000     0.477260000000    -0.166412   
N61      N      0.039950000000     0.625250000000     0.640020000000    -0.166775   
N62      N      0.986690000000     0.603380000000     0.655490000000    -0.165969   
N63      N      0.249510000000     0.608430000000     0.645610000000    -0.165423   
N64      N      0.193710000000     0.628330000000     0.652130000000    -0.166786   
N65      N      0.697980000000     0.371980000000     0.605100000000    -0.166661   
N66      N      0.753790000000     0.377170000000     0.625290000000    -0.166437   
N67      N      0.361480000000     0.365250000000     0.819160000000    -0.166262   
N68      N      0.384060000000     0.373840000000     0.764470000000    -0.165531   
N69      N      0.492570000000     0.368810000000     0.650560000000    -0.165334   
N70      N      0.543800000000     0.385470000000     0.625590000000    -0.165941   
N71      N      0.384180000000     0.446320000000     0.653680000000    -0.16589    
N72      N      0.360060000000     0.500900000000     0.663890000000    -0.165221   
N73      N      0.380110000000     0.849770000000     0.265220000000    -0.164834   
N74      N      0.364140000000     0.876000000000     0.213750000000    -0.16622    
N75      N      0.545790000000     0.876440000000     0.392750000000    -0.166536   
N76      N      0.491400000000     0.862980000000     0.372840000000    -0.165365   
N77      N      0.387900000000     0.782740000000     0.382840000000    -0.165924   
N78      N      0.364390000000     0.730790000000     0.403180000000    -0.165596   
N79      N      0.366550000000     0.997270000000     0.383560000000    -0.165769   
N80      N      0.378190000000     0.941970000000     0.360800000000    -0.166566   
N81      N      0.865560000000     0.988190000000     0.378920000000    -0.164847   
N82      N      0.890090000000     0.042440000000     0.389910000000    -0.166046   
N83      N      0.697640000000     0.859970000000     0.380390000000    -0.166621   
N84      N      0.752490000000     0.880960000000     0.390290000000    -0.165435   
N85      N      0.886370000000     0.858630000000     0.512360000000    -0.165675   
N86      N      0.863240000000     0.876290000000     0.460000000000    -0.165979   
N87      N      0.594550000000     0.289000000000     0.143100000000    -0.16636    
N88      N      0.620450000000     0.235860000000     0.129650000000    -0.165281   
N89      N      0.613370000000     0.506030000000     0.130440000000    -0.165675   
N90      N      0.600740000000     0.450600000000     0.151590000000    -0.166064   
N91      N      0.610830000000     0.618610000000     0.055360000000    -0.165906   
N92      N      0.627510000000     0.639980000000     0.002130000000    -0.165118   
N93      N      0.798220000000     0.364890000000     0.394540000000    -0.16681    
N94      N      0.744290000000     0.379280000000     0.373450000000    -0.1655     
N95      N      0.638670000000     0.385510000000     0.458080000000    -0.167037   
N96      N      0.609750000000     0.377900000000     0.509490000000    -0.164913   
N97      N      0.608010000000     0.372470000000     0.252950000000    -0.165265   
N98      N      0.633480000000     0.364700000000     0.306030000000    -0.165859   
N99      N      0.444930000000     0.622380000000     0.407210000000    -0.165447   
N100     N      0.496770000000     0.630360000000     0.378820000000    -0.165773   
N101     N      0.599320000000     0.610210000000     0.264420000000    -0.165879   
N102     N      0.620530000000     0.620490000000     0.209570000000    -0.166455   
N103     N      0.605030000000     0.541730000000     0.377980000000    -0.166446   
N104     N      0.631770000000     0.488810000000     0.365460000000    -0.165885   
N105     N      0.610400000000     0.699420000000     0.368350000000    -0.165992   
N106     N      0.605390000000     0.755250000000     0.391840000000    -0.165496   
N107     N      0.884160000000     0.886310000000     0.249750000000    -0.165805   
N108     N      0.858030000000     0.877790000000     0.302830000000    -0.166491   
N109     N      0.883400000000     0.942350000000     0.122660000000    -0.166573   
N110     N      0.862930000000     0.998830000000     0.129760000000    -0.165351   
N111     N      0.453290000000     0.853510000000     0.888540000000    -0.166778   
N112     N      0.505160000000     0.879920000000     0.874990000000    -0.165407   
N113     N      0.639150000000     0.750600000000     0.888370000000    -0.165702   
N114     N      0.613640000000     0.803050000000     0.872460000000    -0.166427   
N115     N      0.795160000000     0.866370000000     0.607150000000    -0.165738   
N116     N      0.740590000000     0.881690000000     0.626730000000    -0.1653     
N117     N      0.634950000000     0.863960000000     0.498150000000    -0.165319   
N118     N      0.628820000000     0.888850000000     0.552500000000    -0.16568    
N119     N      0.635320000000     0.882070000000     0.709040000000    -0.165747   
N120     N      0.611790000000     0.891860000000     0.763230000000    -0.165462   
N121     N      0.951990000000     0.853140000000     0.627140000000    -0.165234   
N122     N      0.002170000000     0.848600000000     0.659130000000    -0.166654   
N123     N      0.125900000000     0.909110000000     0.816630000000    -0.165711   
N124     N      0.111620000000     0.887040000000     0.762470000000    -0.166383   
N125     N      0.111440000000     0.737480000000     0.641880000000    -0.165163   
N126     N      0.123890000000     0.791960000000     0.664580000000    -0.165553   
N127     N      0.102730000000     0.940550000000     0.635700000000    -0.165508   
N128     N      0.126730000000     0.995790000000     0.640580000000    -0.164608   
N129     N      0.362250000000     0.124340000000     0.526450000000    -0.165116   
N130     N      0.372990000000     0.102770000000     0.471530000000    -0.165765   
N131     N      0.372930000000     0.230600000000     0.640290000000    -0.164735   
N132     N      0.392940000000     0.286170000000     0.654740000000    -0.166119   
N133     N      0.295740000000     0.119920000000     0.642160000000    -0.166361   
N134     N      0.240560000000     0.101170000000     0.629870000000    -0.165083   
N135     N      0.451510000000     0.120350000000     0.630870000000    -0.1666     
N136     N      0.505730000000     0.134910000000     0.650960000000    -0.165287   
N137     N      0.617840000000     0.051750000000     0.655910000000    -0.166491   
N138     N      0.631120000000     0.996140000000     0.634680000000    -0.165405   
N139     N      0.605560000000     0.266330000000     0.618870000000    -0.166056   
N140     N      0.615890000000     0.211150000000     0.641550000000    -0.165867   
N141     N      0.755140000000     0.119050000000     0.886570000000    -0.165039   
N142     N      0.811290000000     0.138020000000     0.881360000000    -0.165775   
N143     N      0.641260000000     0.012940000000     0.872390000000    -0.165354   
N144     N      0.616290000000     0.958580000000     0.880480000000    -0.166217   
N145     N      0.642000000000     0.123470000000     0.806190000000    -0.165909   
N146     N      0.622490000000     0.143990000000     0.753400000000    -0.16501    
N147     N      0.650570000000     0.118420000000     0.963530000000    -0.16656    
N148     N      0.625330000000     0.128790000000     0.016730000000    -0.16538    
N149     N      0.874700000000     0.631240000000     0.019400000000    -0.164414   
N150     N      0.888730000000     0.612120000000     0.964650000000    -0.166214   
N151     N      0.847800000000     0.741550000000     0.128130000000    -0.165437   
N152     N      0.876070000000     0.792370000000     0.143730000000    -0.16689    
N153     N      0.725490000000     0.612990000000     0.125040000000    -0.165363   
N154     N      0.781350000000     0.623320000000     0.106950000000    -0.166132   
N155     N      0.390710000000     0.203810000000     0.157680000000    -0.166185   
N156     N      0.367860000000     0.259160000000     0.147490000000    -0.166696   
N157     N      0.350660000000     0.357510000000     0.033570000000    -0.165793   
N158     N      0.350360000000     0.377150000000     0.975180000000    -0.167191   
N159     N      0.434920000000     0.383930000000     0.137720000000    -0.166669   
N160     N      0.490510000000     0.370050000000     0.152660000000    -0.165405   
N161     N      0.953570000000     0.371380000000     0.390900000000    -0.166932   
N162     N      0.008210000000     0.359810000000     0.370350000000    -0.165773   
N163     N      0.114110000000     0.450480000000     0.365180000000    -0.16634    
N164     N      0.124340000000     0.505520000000     0.388940000000    -0.165597   
N165     N      0.122870000000     0.292400000000     0.378070000000    -0.166204   
N166     N      0.147190000000     0.241350000000     0.399360000000    -0.165362   
N167     N      0.120920000000     0.629200000000     0.324620000000    -0.166395   
N168     N      0.098890000000     0.623690000000     0.269200000000    -0.165593   
N169     N      0.990560000000     0.623630000000     0.155740000000    -0.164978   
N170     N      0.937270000000     0.644030000000     0.137680000000    -0.16586    
N171     N      0.137720000000     0.869120000000     0.025120000000    -0.165545   
N172     N      0.159030000000     0.882170000000     0.970500000000    -0.165731   
N173     N      0.115550000000     0.761820000000     0.140350000000    -0.165225   
N174     N      0.091050000000     0.708540000000     0.155740000000    -0.166105   
N175     N      0.198880000000     0.865040000000     0.144390000000    -0.165374   
N176     N      0.253800000000     0.884640000000     0.132940000000    -0.165108   
N177     N      0.044610000000     0.875150000000     0.122480000000    -0.166161   
N178     N      0.992380000000     0.862240000000     0.147550000000    -0.165853   
N179     N      0.235870000000     0.393510000000     0.141150000000    -0.164833   
N180     N      0.289610000000     0.373870000000     0.156770000000    -0.166741   
N181     N      0.103800000000     0.551530000000     0.158030000000    -0.166138   
N182     N      0.121750000000     0.503110000000     0.126920000000    -0.16591    
N183     N      0.118610000000     0.369200000000     0.262950000000    -0.164855   
N184     N      0.126030000000     0.399520000000     0.211810000000    -0.165776   
N185     N      0.112630000000     0.213460000000     0.874070000000    -0.166816   
N186     N      0.098160000000     0.266630000000     0.898910000000    -0.166284   
N187     N      0.142600000000     0.388370000000     0.053190000000    -0.166208   
N188     N      0.121290000000     0.380650000000     0.997980000000    -0.165694   
N189     N      0.991420000000     0.380750000000     0.866850000000    -0.165907   
N190     N      0.045830000000     0.394890000000     0.885650000000    -0.166351   
N191     N      0.249400000000     0.382940000000     0.894440000000    -0.164855   
N192     N      0.193930000000     0.365120000000     0.882600000000    -0.16676    
O1       O      0.096930000000     0.315560000000     0.888300000000    -0.511295   
O2       O      0.115320000000     0.303260000000     0.928090000000    -0.490662   
O3       O      0.147810000000     0.379630000000     0.892310000000    -0.493766   
O4       O      0.089920000000     0.373350000000     0.879910000000    -0.491915   
O5       O      0.105230000000     0.348040000000     0.963960000000    -0.490072   
O6       O      0.072200000000     0.374220000000     0.921830000000    -0.509624   
O7       O      0.160270000000     0.337190000000     0.905530000000    -0.512346   
O8       O      0.131810000000     0.382710000000     0.949890000000    -0.511584   
O9       O      0.187580000000     0.386060000000     0.137450000000    -0.516525   
O10      O      0.202230000000     0.430070000000     0.136880000000    -0.491637   
O11      O      0.133970000000     0.388710000000     0.102000000000    -0.496502   
O12      O      0.122510000000     0.398810000000     0.162360000000    -0.49379    
O13      O      0.159570000000     0.470950000000     0.129070000000    -0.496048   
O14      O      0.157120000000     0.422080000000     0.181000000000    -0.519947   
O15      O      0.160990000000     0.421610000000     0.084920000000    -0.522655   
O16      O      0.117650000000     0.453310000000     0.130080000000    -0.519633   
O17      O      0.111560000000     0.811760000000     0.142580000000    -0.512908   
O18      O      0.126810000000     0.793450000000     0.103480000000    -0.491375   
O19      O      0.092520000000     0.871140000000     0.133300000000    -0.491864   
O20      O      0.152260000000     0.875110000000     0.131870000000    -0.488011   
O21      O      0.122990000000     0.835110000000     0.058590000000    -0.488782   
O22      O      0.169210000000     0.833500000000     0.120570000000    -0.51394    
O23      O      0.077340000000     0.849160000000     0.096170000000    -0.518256   
O24      O      0.139720000000     0.875200000000     0.074000000000    -0.514181   
O25      O      0.105760000000     0.625090000000     0.220430000000    -0.512815   
O26      O      0.063110000000     0.628920000000     0.235380000000    -0.49089    
O27      O      0.091820000000     0.658320000000     0.153700000000    -0.493909   
O28      O      0.107080000000     0.600850000000     0.167130000000    -0.489303   
O29      O      0.023040000000     0.621470000000     0.193080000000    -0.485384   
O30      O      0.068000000000     0.579840000000     0.177150000000    -0.511604   
O31      O      0.072520000000     0.677930000000     0.190200000000    -0.512795   
O32      O      0.038710000000     0.631230000000     0.151360000000    -0.513537   
O33      O      0.056400000000     0.362270000000     0.378850000000    -0.511835   
O34      O      0.042810000000     0.365630000000     0.335530000000    -0.489754   
O35      O      0.121290000000     0.400650000000     0.365370000000    -0.493654   
O36      O      0.110450000000     0.341010000000     0.381650000000    -0.491677   
O37      O      0.084060000000     0.359900000000     0.297080000000    -0.485534   
O38      O      0.105030000000     0.320350000000     0.341270000000    -0.511206   
O39      O      0.082610000000     0.416510000000     0.347490000000    -0.51399    
O40      O      0.124310000000     0.375620000000     0.311430000000    -0.511696   
O41      O      0.376580000000     0.308390000000     0.150330000000    -0.510295   
O42      O      0.354070000000     0.293210000000     0.113830000000    -0.497359   
O43      O      0.316940000000     0.336890000000     0.137900000000    -0.511749   
O44      O      0.390760000000     0.365860000000     0.149810000000    -0.492731   
O45      O      0.338830000000     0.364220000000     0.081010000000    -0.507543   
O46      O      0.404150000000     0.361300000000     0.106570000000    -0.508017   
O47      O      0.334580000000     0.379570000000     0.137740000000    -0.494666   
O48      O      0.371050000000     0.332920000000     0.071490000000    -0.487623   
O49      O      0.853450000000     0.692330000000     0.135790000000    -0.512757   
O50      O      0.854510000000     0.707250000000     0.092610000000    -0.492636   
O51      O      0.887960000000     0.640980000000     0.137600000000    -0.492963   
O52      O      0.829610000000     0.623400000000     0.117580000000    -0.494502   
O53      O      0.868660000000     0.667310000000     0.053420000000    -0.48878    
O54      O      0.813000000000     0.658540000000     0.092930000000    -0.522924   
O55      O      0.908260000000     0.659600000000     0.101180000000    -0.520256   
O56      O      0.867370000000     0.623120000000     0.067560000000    -0.510714   
O57      O      0.719810000000     0.084570000000     0.880490000000    -0.491647   
O58      O      0.706970000000     0.128680000000     0.886830000000    -0.51127    
O59      O      0.653270000000     0.127150000000     0.914870000000    -0.495632   
O60      O      0.638500000000     0.117800000000     0.855210000000    -0.493353   
O61      O      0.678210000000     0.045270000000     0.880040000000    -0.488721   
O62      O      0.676970000000     0.104150000000     0.835040000000    -0.515388   
O63      O      0.667440000000     0.085900000000     0.930010000000    -0.518414   
O64      O      0.636280000000     0.062630000000     0.876230000000    -0.512139   
O65      O      0.625930000000     0.133630000000     0.705340000000    -0.510775   
O66      O      0.584420000000     0.141870000000     0.722040000000    -0.485942   
O67      O      0.607500000000     0.161650000000     0.637230000000    -0.487262   
O68      O      0.621280000000     0.101940000000     0.653010000000    -0.493711   
O69      O      0.541760000000     0.130240000000     0.684470000000    -0.488774   
O70      O      0.585170000000     0.084320000000     0.674220000000    -0.516703   
O71      O      0.597360000000     0.182100000000     0.676920000000    -0.514013   
O72      O      0.553750000000     0.138050000000     0.641190000000    -0.51119    
O73      O      0.362000000000     0.114850000000     0.574870000000    -0.509423   
O74      O      0.371850000000     0.158140000000     0.561970000000    -0.486989   
O75      O      0.343010000000     0.112300000000     0.630090000000    -0.48787    
O76      O      0.418560000000     0.140470000000     0.600200000000    -0.514222   
O77      O      0.365890000000     0.196870000000     0.604140000000    -0.485366   
O78      O      0.403480000000     0.125820000000     0.640610000000    -0.492661   
O79      O      0.325590000000     0.154500000000     0.623220000000    -0.51402    
O80      O      0.380380000000     0.181210000000     0.644520000000    -0.508135   
O81      O      0.050820000000     0.845520000000     0.654290000000    -0.514697   
O82      O      0.035000000000     0.872210000000     0.687970000000    -0.490709   
O83      O      0.110450000000     0.838830000000     0.653070000000    -0.486407   
O84      O      0.112860000000     0.894610000000     0.652790000000    -0.488023   
O85      O      0.079420000000     0.866180000000     0.731050000000    -0.491509   
O86      O      0.072890000000     0.913280000000     0.664250000000    -0.507563   
O87      O      0.098740000000     0.822860000000     0.694190000000    -0.507203   
O88      O      0.113520000000     0.890550000000     0.713340000000    -0.513366   
O89      O      0.625780000000     0.946670000000     0.640480000000    -0.51256    
O90      O      0.666190000000     0.961650000000     0.626140000000    -0.488346   
O91      O      0.666470000000     0.904710000000     0.678240000000    -0.512432   
O92      O      0.652570000000     0.919640000000     0.583180000000    -0.51258    
O93      O      0.707620000000     0.918200000000     0.635710000000    -0.487318   
O94      O      0.634810000000     0.881130000000     0.601100000000    -0.488429   
O95      O      0.627870000000     0.888560000000     0.660480000000    -0.487573   
O96      O      0.692100000000     0.877400000000     0.620720000000    -0.512037   
O97      O      0.553550000000     0.874640000000     0.880240000000    -0.511343   
O98      O      0.538550000000     0.888160000000     0.839370000000    -0.48702    
O99      O      0.621380000000     0.910180000000     0.868090000000    -0.490751   
O100     O      0.607390000000     0.852450000000     0.878810000000    -0.493825   
O101     O      0.578110000000     0.881020000000     0.797860000000    -0.489554   
O102     O      0.595140000000     0.834480000000     0.838710000000    -0.510804   
O103     O      0.581820000000     0.930690000000     0.858650000000    -0.512046   
O104     O      0.619510000000     0.893200000000     0.811900000000    -0.511066   
O105     O      0.944670000000     0.854550000000     0.139510000000    -0.509559   
O106     O      0.955910000000     0.878180000000     0.177020000000    -0.488124   
O107     O      0.875050000000     0.897720000000     0.143530000000    -0.492881   
O108     O      0.889030000000     0.839840000000     0.134760000000    -0.496201   
O109     O      0.915740000000     0.868670000000     0.215880000000    -0.491537   
O110     O      0.894140000000     0.824330000000     0.177270000000    -0.508275   
O111     O      0.916710000000     0.915370000000     0.147310000000    -0.509303   
O112     O      0.877660000000     0.888580000000     0.200880000000    -0.507908   
O113     O      0.608930000000     0.609910000000     0.312730000000    -0.512187   
O114     O      0.566770000000     0.621080000000     0.300120000000    -0.488102   
O115     O      0.610310000000     0.591160000000     0.370560000000    -0.491258   
O116     O      0.586080000000     0.667950000000     0.338700000000    -0.510539   
O117     O      0.528720000000     0.617210000000     0.343320000000    -0.487944   
O118     O      0.602410000000     0.650690000000     0.377630000000    -0.489596   
O119     O      0.571260000000     0.571830000000     0.357730000000    -0.511664   
O120     O      0.545610000000     0.632080000000     0.382970000000    -0.511607   
O121     O      0.696680000000     0.372680000000     0.382780000000    -0.512716   
O122     O      0.709670000000     0.415010000000     0.369600000000    -0.48964    
O123     O      0.628210000000     0.380660000000     0.352590000000    -0.489507   
O124     O      0.641540000000     0.376120000000     0.409660000000    -0.496719   
O125     O      0.667860000000     0.456110000000     0.375940000000    -0.491889   
O126     O      0.658710000000     0.416110000000     0.424650000000    -0.51607    
O127     O      0.666640000000     0.391500000000     0.330820000000    -0.512604   
O128     O      0.627140000000     0.438880000000     0.365620000000    -0.511512   
O129     O      0.608900000000     0.555020000000     0.139930000000    -0.514001   
O130     O      0.648680000000     0.540290000000     0.123370000000    -0.491292   
O131     O      0.622250000000     0.624890000000     0.103120000000    -0.488134   
O132     O      0.611350000000     0.612540000000     0.161540000000    -0.49142    
O133     O      0.690150000000     0.580280000000     0.137430000000    -0.486162   
O134     O      0.651060000000     0.597910000000     0.178030000000    -0.514692   
O135     O      0.629810000000     0.583220000000     0.084470000000    -0.511881   
O136     O      0.677580000000     0.619840000000     0.117320000000    -0.513049   
O137     O      0.611500000000     0.372380000000     0.203810000000    -0.51505    
O138     O      0.570050000000     0.367790000000     0.221900000000    -0.490891   
O139     O      0.605440000000     0.400410000000     0.150730000000    -0.494163   
O140     O      0.592680000000     0.339180000000     0.138660000000    -0.497544   
O141     O      0.527300000000     0.370320000000     0.185400000000    -0.493369   
O142     O      0.577970000000     0.320530000000     0.177640000000    -0.520202   
O143     O      0.568760000000     0.418360000000     0.171040000000    -0.518802   
O144     O      0.538180000000     0.369350000000     0.141060000000    -0.514371   
O145     O      0.800700000000     0.871750000000     0.389740000000    -0.509928   
O146     O      0.787500000000     0.915510000000     0.382670000000    -0.48781    
O147     O      0.854870000000     0.870110000000     0.411570000000    -0.489254   
O148     O      0.828080000000     0.900950000000     0.334640000000    -0.514927   
O149     O      0.829430000000     0.954720000000     0.385840000000    -0.48773    
O150     O      0.865270000000     0.880980000000     0.351720000000    -0.493925   
O151     O      0.846060000000     0.911700000000     0.429660000000    -0.512152   
O152     O      0.870800000000     0.938320000000     0.375990000000    -0.508509   
O153     O      0.373660000000     0.857560000000     0.313500000000    -0.510276   
O154     O      0.416340000000     0.852490000000     0.298630000000    -0.487455   
O155     O      0.375560000000     0.891820000000     0.365150000000    -0.493868   
O156     O      0.391040000000     0.833050000000     0.383690000000    -0.490173   
O157     O      0.456850000000     0.863060000000     0.337540000000    -0.488818   
O158     O      0.403950000000     0.811120000000     0.345640000000    -0.513609   
O159     O      0.411820000000     0.909520000000     0.344230000000    -0.517793   
O160     O      0.443060000000     0.860830000000     0.380920000000    -0.510721   
O161     O      0.606380000000     0.804730000000     0.383780000000    -0.507344   
O162     O      0.620780000000     0.789860000000     0.424380000000    -0.487333   
O163     O      0.650960000000     0.870390000000     0.392150000000    -0.49212    
O164     O      0.592090000000     0.862350000000     0.383510000000    -0.491583   
O165     O      0.619890000000     0.830710000000     0.464100000000    -0.486521   
O166     O      0.575920000000     0.854790000000     0.425360000000    -0.510499   
O167     O      0.666690000000     0.828270000000     0.402530000000    -0.511571   
O168     O      0.635330000000     0.871580000000     0.449400000000    -0.50822    
O169     O      0.443920000000     0.365930000000     0.646190000000    -0.515378   
O170     O      0.460640000000     0.370500000000     0.688390000000    -0.48789    
O171     O      0.378530000000     0.396850000000     0.660920000000    -0.490707   
O172     O      0.391100000000     0.336320000000     0.650660000000    -0.493898   
O173     O      0.419970000000     0.368390000000     0.730850000000    -0.491845   
O174     O      0.410950000000     0.318620000000     0.687720000000    -0.516429   
O175     O      0.417290000000     0.416290000000     0.674810000000    -0.515065   
O176     O      0.377360000000     0.372160000000     0.715670000000    -0.515115   
O177     O      0.605730000000     0.342290000000     0.544130000000    -0.489884   
O178     O      0.618780000000     0.384720000000     0.557450000000    -0.51021    
O179     O      0.649640000000     0.378580000000     0.611850000000    -0.49751    
O180     O      0.591350000000     0.372570000000     0.628060000000    -0.488564   
O181     O      0.612370000000     0.300490000000     0.583170000000    -0.489731   
O182     O      0.569270000000     0.364090000000     0.589150000000    -0.514184   
O183     O      0.662990000000     0.342020000000     0.587200000000    -0.51821    
O184     O      0.609590000000     0.315740000000     0.626090000000    -0.515555   
O185     O      0.128790000000     0.620390000000     0.581100000000    -0.507455   
O186     O      0.119350000000     0.663900000000     0.568450000000    -0.488425   
O187     O      0.087800000000     0.632850000000     0.648430000000    -0.496063   
O188     O      0.147440000000     0.619270000000     0.637870000000    -0.493697   
O189     O      0.120620000000     0.702270000000     0.607670000000    -0.485845   
O190     O      0.164210000000     0.661510000000     0.630170000000    -0.515488   
O191     O      0.072060000000     0.642730000000     0.606930000000    -0.512768   
O192     O      0.108910000000     0.688030000000     0.649400000000    -0.506836   
O193     O      0.196520000000     0.582470000000     0.389330000000    -0.485355   
O194     O      0.184030000000     0.620830000000     0.411730000000    -0.508399   
O195     O      0.139470000000     0.579270000000     0.444360000000    -0.509878   
O196     O      0.154990000000     0.606310000000     0.352060000000    -0.510596   
O197     O      0.157590000000     0.540920000000     0.399730000000    -0.489284   
O198     O      0.114520000000     0.613490000000     0.371190000000    -0.489025   
O199     O      0.127800000000     0.621450000000     0.429690000000    -0.490725   
O200     O      0.116910000000     0.555000000000     0.385270000000    -0.508014   
O201     O      0.368460000000     0.680920000000     0.400120000000    -0.516279   
O202     O      0.364730000000     0.699320000000     0.441840000000    -0.490457   
O203     O      0.335870000000     0.617400000000     0.418310000000    -0.492462   
O204     O      0.395730000000     0.625140000000     0.404550000000    -0.488876   
O205     O      0.376220000000     0.659130000000     0.485010000000    -0.489356   
O206     O      0.416260000000     0.646580000000     0.439360000000    -0.514621   
O207     O      0.320400000000     0.652990000000     0.443150000000    -0.517899   
O208     O      0.370430000000     0.614950000000     0.472010000000    -0.513311   
O209     O      0.297590000000     0.617840000000     0.647450000000    -0.510343   
O210     O      0.284600000000     0.573810000000     0.652950000000    -0.488546   
O211     O      0.351190000000     0.617190000000     0.621720000000    -0.494368   
O212     O      0.365210000000     0.607810000000     0.680810000000    -0.493983   
O213     O      0.324800000000     0.534780000000     0.654450000000    -0.48747    
O214     O      0.326640000000     0.594100000000     0.700510000000    -0.513824   
O215     O      0.341380000000     0.574940000000     0.606010000000    -0.51434    
O216     O      0.366820000000     0.550510000000     0.661760000000    -0.510413   
O217     O      0.199320000000     0.882950000000     0.882910000000    -0.515802   
O218     O      0.215400000000     0.926280000000     0.881990000000    -0.490549   
O219     O      0.131900000000     0.899780000000     0.864990000000    -0.490821   
O220     O      0.150340000000     0.883830000000     0.921700000000    -0.490445   
O221     O      0.176480000000     0.968030000000     0.899710000000    -0.488753   
O222     O      0.174910000000     0.918000000000     0.940040000000    -0.515738   
O223     O      0.162520000000     0.926740000000     0.844370000000    -0.516299   
O224     O      0.133560000000     0.952970000000     0.900690000000    -0.514294   
O225     O      0.296810000000     0.371130000000     0.899540000000    -0.507946   
O226     O      0.286900000000     0.414730000000     0.887420000000    -0.485496   
O227     O      0.350330000000     0.369070000000     0.926330000000    -0.493165   
O228     O      0.327930000000     0.388470000000     0.847010000000    -0.512973   
O229     O      0.328440000000     0.451830000000     0.892290000000    -0.487856   
O230     O      0.367540000000     0.378170000000     0.866640000000    -0.491159   
O231     O      0.337350000000     0.410850000000     0.941170000000    -0.516079   
O232     O      0.369980000000     0.434220000000     0.886320000000    -0.508465   
O233     O      0.374660000000     0.870530000000     0.954910000000    -0.508627   
O234     O      0.379700000000     0.826840000000     0.969200000000    -0.487285   
O235     O      0.347040000000     0.872030000000     0.903250000000    -0.491122   
O236     O      0.404080000000     0.853530000000     0.885780000000    -0.492154   
O237     O      0.367710000000     0.786670000000     0.930570000000    -0.486096   
O238     O      0.423120000000     0.836340000000     0.923440000000    -0.517456   
O239     O      0.327170000000     0.831870000000     0.913740000000    -0.512858   
O240     O      0.376050000000     0.799200000000     0.887430000000    -0.508377   
O241     O      0.452460000000     0.625170000000     0.893580000000    -0.5126     
O242     O      0.465510000000     0.608210000000     0.853170000000    -0.486643   
O243     O      0.385010000000     0.586690000000     0.886530000000    -0.491478   
O244     O      0.397730000000     0.646760000000     0.893410000000    -0.490233   
O245     O      0.423360000000     0.614080000000     0.813140000000    -0.489853   
O246     O      0.410350000000     0.662110000000     0.852370000000    -0.512585   
O247     O      0.423960000000     0.566510000000     0.874160000000    -0.512036   
O248     O      0.382510000000     0.604050000000     0.830220000000    -0.51222    
O249     O      0.864490000000     0.125050000000     0.957620000000    -0.512123   
O250     O      0.888000000000     0.161030000000     0.973640000000    -0.492102   
O251     O      0.912130000000     0.129600000000     0.893620000000    -0.489213   
O252     O      0.855730000000     0.125430000000     0.898450000000    -0.489389   
O253     O      0.906080000000     0.189750000000     0.897610000000    -0.512505   
O254     O      0.840690000000     0.168240000000     0.907380000000    -0.507987   
O255     O      0.928860000000     0.138820000000     0.934970000000    -0.508418   
O256     O      0.880350000000     0.204950000000     0.932040000000    -0.489062   
O257     O      0.633250000000     0.701080000000     0.883470000000    -0.515136   
O258     O      0.637920000000     0.717800000000     0.925790000000    -0.493812   
O259     O      0.602240000000     0.645760000000     0.888810000000    -0.492438   
O260     O      0.663040000000     0.636410000000     0.897700000000    -0.493185   
O261     O      0.628380000000     0.676720000000     0.968300000000    -0.489468   
O262     O      0.680560000000     0.670140000000     0.923610000000    -0.52028    
O263     O      0.584750000000     0.669630000000     0.923850000000    -0.518892   
O264     O      0.631560000000     0.632860000000     0.953450000000    -0.515609   
O265     O      0.879180000000     0.866930000000     0.560410000000    -0.514849   
O266     O      0.881280000000     0.822710000000     0.546720000000    -0.489001   
O267     O      0.902740000000     0.856700000000     0.626740000000    -0.488272   
O268     O      0.844170000000     0.867330000000     0.612800000000    -0.490372   
O269     O      0.867930000000     0.782910000000     0.590220000000    -0.488729   
O270     O      0.826160000000     0.830960000000     0.591180000000    -0.515566   
O271     O      0.922450000000     0.829360000000     0.595540000000    -0.515376   
O272     O      0.873020000000     0.800830000000     0.632020000000    -0.513035   
O273     O      0.871230000000     0.621960000000     0.716590000000    -0.507986   
O274     O      0.914560000000     0.626170000000     0.729780000000    -0.487619   
O275     O      0.871480000000     0.588480000000     0.662240000000    -0.492647   
O276     O      0.888400000000     0.647090000000     0.646220000000    -0.492857   
O277     O      0.953030000000     0.610480000000     0.690900000000    -0.491047   
O278     O      0.904090000000     0.667580000000     0.683880000000    -0.512982   
O279     O      0.902560000000     0.569520000000     0.689650000000    -0.518042   
O280     O      0.938990000000     0.611940000000     0.647650000000    -0.512716   
O281     O      0.871390000000     0.555280000000     0.869370000000    -0.510544   
O282     O      0.840990000000     0.539620000000     0.899330000000    -0.492639   
O283     O      0.868540000000     0.622150000000     0.920780000000    -0.491408   
O284     O      0.831830000000     0.609140000000     0.850460000000    -0.506581   
O285     O      0.796840000000     0.579950000000     0.889360000000    -0.492341   
O286     O      0.874470000000     0.615400000000     0.864500000000    -0.492081   
O287     O      0.866140000000     0.578550000000     0.935880000000    -0.505657   
O288     O      0.810340000000     0.614480000000     0.916460000000    -0.512942   
O289     O      0.875230000000     0.364150000000     0.805780000000    -0.513376   
O290     O      0.918070000000     0.366080000000     0.790780000000    -0.491892   
O291     O      0.878530000000     0.400400000000     0.861690000000    -0.494067   
O292     O      0.888060000000     0.339900000000     0.871020000000    -0.494216   
O293     O      0.958130000000     0.373860000000     0.831160000000    -0.493898   
O294     O      0.915030000000     0.321090000000     0.839330000000    -0.518818   
O295     O      0.907360000000     0.418790000000     0.831520000000    -0.517591   
O296     O      0.942920000000     0.377770000000     0.873950000000    -0.515679   
O297     O      0.883080000000     0.302950000000     0.384160000000    -0.50742    
O298     O      0.880570000000     0.290050000000     0.427840000000    -0.487804   
O299     O      0.906450000000     0.359150000000     0.383460000000    -0.496111   
O300     O      0.846850000000     0.371810000000     0.397790000000    -0.495575   
O301     O      0.878500000000     0.328440000000     0.465470000000    -0.4858     
O302     O      0.830350000000     0.330960000000     0.411120000000    -0.516984   
O303     O      0.923760000000     0.351750000000     0.424850000000    -0.515534   
O304     O      0.870560000000     0.372250000000     0.452670000000    -0.50605    
O305     O      0.863470000000     0.433270000000     0.656350000000    -0.509489   
O306     O      0.831430000000     0.448580000000     0.627970000000    -0.48967    
O307     O      0.861210000000     0.368730000000     0.602390000000    -0.494547   
O308     O      0.871290000000     0.375010000000     0.658440000000    -0.490211   
O309     O      0.789850000000     0.407080000000     0.641450000000    -0.496887   
O310     O      0.829160000000     0.376210000000     0.675280000000    -0.507097   
O311     O      0.852190000000     0.411690000000     0.588120000000    -0.508765   
O312     O      0.801460000000     0.371080000000     0.615180000000    -0.511434   
O313     O      0.301790000000     0.874470000000     0.131870000000    -0.509939   
O314     O      0.289620000000     0.918690000000     0.138590000000    -0.486114   
O315     O      0.370550000000     0.885280000000     0.165530000000    -0.49176    
O316     O      0.355240000000     0.873250000000     0.105960000000    -0.495524   
O317     O      0.330200000000     0.956820000000     0.138280000000    -0.487833   
O318     O      0.344790000000     0.914970000000     0.089340000000    -0.51447    
O319     O      0.330430000000     0.896100000000     0.183880000000    -0.51247    
O320     O      0.372120000000     0.940480000000     0.145100000000    -0.50879    
O321     O      0.947050000000     0.138550000000     0.383510000000    -0.513246   
O322     O      0.961560000000     0.113490000000     0.348040000000    -0.489088   
O323     O      0.882290000000     0.091010000000     0.379600000000    -0.490401   
O324     O      0.890660000000     0.149790000000     0.386310000000    -0.486148   
O325     O      0.881860000000     0.104170000000     0.320930000000    -0.514978   
O326     O      0.897950000000     0.165560000000     0.344080000000    -0.50769    
O327     O      0.921700000000     0.072420000000     0.366430000000    -0.509681   
O328     O      0.919130000000     0.125410000000     0.305680000000    -0.489081   
O329     O      0.126270000000     0.125110000000     0.816800000000    -0.511665   
O330     O      0.083560000000     0.131570000000     0.802890000000    -0.488822   
O331     O      0.087970000000     0.082590000000     0.861660000000    -0.513967   
O332     O      0.113340000000     0.163650000000     0.881640000000    -0.494693   
O333     O      0.044640000000     0.124870000000     0.844180000000    -0.489237   
O334     O      0.093490000000     0.179290000000     0.843730000000    -0.519401   
O335     O      0.127780000000     0.102500000000     0.871060000000    -0.491379   
O336     O      0.059420000000     0.134630000000     0.886300000000    -0.51107    
O337     O      0.138650000000     0.192370000000     0.393300000000    -0.515578   
O338     O      0.136160000000     0.209240000000     0.435800000000    -0.491055   
O339     O      0.098260000000     0.141210000000     0.393700000000    -0.491926   
O340     O      0.156090000000     0.125030000000     0.410070000000    -0.491828   
O341     O      0.117350000000     0.168420000000     0.476200000000    -0.491299   
O342     O      0.173750000000     0.156050000000     0.439000000000    -0.518993   
O343     O      0.080280000000     0.171220000000     0.423540000000    -0.519592   
O344     O      0.115630000000     0.124990000000     0.460070000000    -0.515966   
O345     O      0.121630000000     0.045640000000     0.641760000000    -0.508134   
O346     O      0.163050000000     0.028850000000     0.632770000000    -0.488096   
O347     O      0.139290000000     0.115150000000     0.607540000000    -0.49477    
O348     O      0.125100000000     0.099020000000     0.666480000000    -0.493125   
O349     O      0.204760000000     0.066760000000     0.633690000000    -0.486365   
O350     O      0.164730000000     0.084340000000     0.683170000000    -0.513896   
O351     O      0.145740000000     0.073720000000     0.588210000000    -0.513541   
O352     O      0.192590000000     0.111430000000     0.631790000000    -0.510272   
O353     O      0.801680000000     0.117550000000     0.146140000000    -0.514286   
O354     O      0.787050000000     0.073620000000     0.147080000000    -0.491584   
O355     O      0.854060000000     0.116350000000     0.109940000000    -0.495614   
O356     O      0.869020000000     0.101270000000     0.168360000000    -0.491619   
O357     O      0.826850000000     0.032940000000     0.133070000000    -0.491918   
O358     O      0.835880000000     0.076180000000     0.187240000000    -0.519694   
O359     O      0.828410000000     0.083190000000     0.091210000000    -0.518573   
O360     O      0.869620000000     0.048390000000     0.133130000000    -0.514927   
O361     O      0.631230000000     0.119790000000     0.064800000000    -0.511376   
O362     O      0.619670000000     0.162930000000     0.052730000000    -0.488644   
O363     O      0.596570000000     0.128930000000     0.133430000000    -0.492286   
O364     O      0.654740000000     0.118210000000     0.119010000000    -0.493621   
O365     O      0.627810000000     0.201870000000     0.093820000000    -0.488793   
O366     O      0.671600000000     0.159970000000     0.109250000000    -0.513361   
O367     O      0.577380000000     0.143390000000     0.094720000000    -0.515581   
O368     O      0.616320000000     0.186230000000     0.135160000000    -0.511673   
O369     O      0.372760000000     0.046820000000     0.379650000000    -0.512215   
O370     O      0.333090000000     0.032160000000     0.396150000000    -0.489639   
O371     O      0.364110000000     0.112760000000     0.423830000000    -0.487559   
O372     O      0.373690000000     0.105470000000     0.365360000000    -0.488905   
O373     O      0.292820000000     0.076170000000     0.386020000000    -0.485867   
O374     O      0.333070000000     0.096300000000     0.347450000000    -0.509566   
O375     O      0.351460000000     0.071350000000     0.439770000000    -0.509861   
O376     O      0.307390000000     0.112810000000     0.409770000000    -0.511598   
O377     O      0.379830000000     0.114550000000     0.214450000000    -0.513177   
O378     O      0.422430000000     0.118960000000     0.229170000000    -0.492611   
O379     O      0.381750000000     0.093940000000     0.156570000000    -0.491867   
O380     O      0.390160000000     0.153840000000     0.151900000000    -0.493134   
O381     O      0.462450000000     0.119270000000     0.187670000000    -0.487065   
O382     O      0.411820000000     0.170840000000     0.188220000000    -0.514598   
O383     O      0.421180000000     0.074470000000     0.168380000000    -0.512506   
O384     O      0.446850000000     0.130580000000     0.146300000000    -0.511867   


