data_structure

_audit_creation_method RASPA-1.0
_audit_creation_date 2023-5-22
_audit_author_name 'Poobodin Mano'

_cell_length_a    56.9346
_cell_length_b    32.98
_cell_length_c    51.4663
_cell_angle_alpha 89.9998
_cell_angle_beta  90.0052
_cell_angle_gamma 89.9989
_cell_volume      96638.4

_symmetry_cell_setting          triclinic
_symmetry_space_group_name_Hall 'P 1'
_symmetry_space_group_name_H-M  'P 1'
_symmetry_Int_Tables_number     1

_symmetry_equiv_pos_as_xyz 'x,y,z'

loop_
_atom_site_label
_atom_site_type_symbol
_atom_site_fract_x
_atom_site_fract_y
_atom_site_fract_z
_atom_site_charge
C1       C      0.434970000000     0.109900000000     0.941340000000     0.317969   
C2       C      0.509910000000     0.078720000000     0.942720000000     0.408973   
C3       C      0.466050000000     0.031330000000     0.880350000000     0.410119   
C4       C      0.481130000000     0.161860000000     0.880550000000     0.408203   
C5       C      0.654090000000     0.466000000000     0.002630000000     0.309346   
C6       C      0.587380000000     0.520590000000     0.991660000000     0.404882   
C7       C      0.612060000000     0.449080000000     0.070330000000     0.407087   
C8       C      0.618270000000     0.085800000000     0.078040000000     0.404672   
C9       C      0.435640000000     0.309100000000     0.758130000000     0.31076    
C10      C      0.500190000000     0.365630000000     0.737070000000     0.406814   
C11      C      0.476760000000     0.412520000000     0.805550000000     0.406584   
C12      C      0.488040000000     0.290920000000     0.817200000000     0.405494   
C13      C      0.620960000000     0.532730000000     0.722440000000     0.315701   
C14      C      0.562850000000     0.467200000000     0.697440000000     0.404509   
C15      C      0.592900000000     0.120800000000     0.668350000000     0.405621   
C16      C      0.609110000000     0.486550000000     0.634160000000     0.401852   
C17      C      0.440940000000     0.425800000000     0.445080000000     0.316808   
C18      C      0.511260000000     0.378980000000     0.457570000000     0.408395   
C19      C      0.477480000000     0.333620000000     0.390960000000     0.403018   
C20      C      0.494050000000     0.462210000000     0.387930000000     0.402022   
C21      C      0.634720000000     0.235800000000     0.539240000000     0.316438   
C22      C      0.569490000000     0.296680000000     0.520090000000     0.407309   
C23      C      0.584000000000     0.242080000000     0.602790000000     0.400296   
C24      C      0.607130000000     0.356000000000     0.578320000000     0.405249   
C25      C      0.461010000000     0.134180000000     0.254070000000     0.31096    
C26      C      0.526800000000     0.179830000000     0.277710000000     0.407422   
C27      C      0.474200000000     0.197140000000     0.335300000000     0.400607   
C28      C      0.486000000000     0.074440000000     0.323510000000     0.406219   
C29      C      0.658050000000     0.289800000000     0.200950000000     0.312439   
C30      C      0.587260000000     0.244070000000     0.208320000000     0.413266   
C31      C      0.606510000000     0.347180000000     0.150390000000     0.405999   
C32      C      0.622690000000     0.221790000000     0.135210000000     0.403832   
C33      C      0.087490000000     0.499470000000     0.511740000000     0.320835   
C34      C      0.022990000000     0.562010000000     0.543960000000     0.413629   
C35      C      0.053710000000     0.454120000000     0.582780000000     0.400702   
C36      C      0.099540000000     0.072990000000     0.569800000000     0.404453   
C37      C      0.908560000000     0.197280000000     0.438160000000     0.314472   
C38      C      0.976920000000     0.146680000000     0.461800000000     0.410761   
C39      C      0.954220000000     0.134870000000     0.381300000000     0.40384    
C40      C      0.973930000000     0.256150000000     0.410150000000     0.408075   
C41      C      0.964340000000     0.445240000000     0.915800000000     0.306658   
C42      C      0.024630000000     0.366410000000     0.937520000000     0.412053   
C43      C      0.994480000000     0.338840000000     0.867430000000     0.401594   
C44      C      0.023430000000     0.459200000000     0.866640000000     0.405655   
C45      C      0.134240000000     0.201150000000     0.025600000000     0.30658    
C46      C      0.071080000000     0.264870000000     0.001360000000     0.409959   
C47      C      0.074260000000     0.179080000000     0.075290000000     0.404128   
C48      C      0.096470000000     0.300660000000     0.074260000000     0.403217   
C49      C      0.140180000000     0.517090000000     0.189510000000     0.314628   
C50      C      0.065840000000     0.482630000000     0.205380000000     0.406094   
C51      C      0.075030000000     0.046570000000     0.135490000000     0.403783   
C52      C      0.094450000000     0.421690000000     0.144940000000     0.401618   
C53      C      0.931530000000     0.415090000000     0.281120000000     0.314949   
C54      C      0.001390000000     0.466990000000     0.282190000000     0.4079     
C55      C      0.957070000000     0.508730000000     0.342870000000     0.405513   
C56      C      0.973830000000     0.384160000000     0.348900000000     0.398496   
C57      C      0.934600000000     0.110820000000     0.769310000000     0.31325    
C58      C      0.006360000000     0.145100000000     0.755550000000     0.407808   
C59      C      0.980750000000     0.191820000000     0.824760000000     0.402698   
C60      C      0.979920000000     0.064460000000     0.827770000000     0.404718   
C61      C      0.140970000000     0.285730000000     0.685270000000     0.314212   
C62      C      0.067410000000     0.234070000000     0.701260000000     0.413393   
C63      C      0.080390000000     0.325620000000     0.638850000000     0.397866   
C64      C      0.103200000000     0.197310000000     0.634520000000     0.397242   
C65      C      0.867160000000     0.436590000000     0.758350000000     0.320381   
C66      C      0.807020000000     0.379970000000     0.800710000000     0.408185   
C67      C      0.878640000000     0.365920000000     0.830540000000     0.407152   
C68      C      0.845530000000     0.484620000000     0.834800000000     0.407838   
C69      C      0.676070000000     0.283240000000     0.703360000000     0.318575   
C70      C      0.745300000000     0.324420000000     0.734450000000     0.409966   
C71      C      0.740630000000     0.239160000000     0.666650000000     0.409836   
C72      C      0.721480000000     0.370110000000     0.661070000000     0.405382   
C73      C      0.894300000000     0.398350000000     0.449900000000     0.315666   
C74      C      0.821040000000     0.440600000000     0.471080000000     0.413409   
C75      C      0.849100000000     0.470530000000     0.396360000000     0.399138   
C76      C      0.839480000000     0.339810000000     0.411370000000     0.400598   
C77      C      0.685570000000     0.577920000000     0.529980000000     0.316323   
C78      C      0.754690000000     0.525190000000     0.521380000000     0.409008   
C79      C      0.729890000000     0.130200000000     0.593950000000     0.403465   
C80      C      0.724350000000     0.487430000000     0.587520000000     0.403475   
C81      C      0.898170000000     0.155930000000     0.949590000000     0.315391   
C82      C      0.826940000000     0.226580000000     0.956160000000     0.406311   
C83      C      0.874850000000     0.246560000000     0.894320000000     0.401668   
C84      C      0.837760000000     0.123210000000     0.905340000000     0.404979   
C85      C      0.695470000000     0.362940000000     0.025740000000     0.308734   
C86      C      0.764900000000     0.316780000000     0.006980000000     0.408152   
C87      C      0.742510000000     0.374300000000     0.088690000000     0.408017   
C88      C      0.735180000000     0.250870000000     0.064290000000     0.403145   
C89      C      0.656170000000     0.544650000000     0.189890000000     0.313368   
C90      C      0.729220000000     0.571020000000     0.219020000000     0.408422   
C91      C      0.719320000000     0.495730000000     0.150530000000     0.4126     
C92      C      0.735540000000     0.127790000000     0.132590000000     0.402459   
C93      C      0.904330000000     0.181690000000     0.282190000000     0.312186   
C94      C      0.835120000000     0.151700000000     0.262560000000     0.40342    
C95      C      0.852140000000     0.101980000000     0.334860000000     0.407583   
C96      C      0.854620000000     0.225910000000     0.339650000000     0.4018     
C97      C      0.379190000000     0.134900000000     0.766360000000     0.309514   
C98      C      0.311740000000     0.076310000000     0.761030000000     0.408069   
C99      C      0.347690000000     0.037070000000     0.823700000000     0.401973   
C100     C      0.334250000000     0.164690000000     0.830500000000     0.403832   
C101     C      0.166320000000     0.502130000000     0.672000000000     0.316819   
C102     C      0.239340000000     0.548280000000     0.672130000000     0.402045   
C103     C      0.213590000000     0.451230000000     0.617060000000     0.402988   
C104     C      0.215660000000     0.070110000000     0.622980000000     0.401317   
C105     C      0.396740000000     0.372150000000     0.926530000000     0.321176   
C106     C      0.320780000000     0.409100000000     0.932070000000     0.413676   
C107     C      0.360540000000     0.435720000000     0.862470000000     0.39915    
C108     C      0.346480000000     0.307690000000     0.879120000000     0.40071    
C109     C      0.194340000000     0.496890000000     0.000020000000     0.311105   
C110     C      0.263070000000     0.463340000000     0.007820000000     0.407294   
C111     C      0.225600000000     0.046560000000     0.068890000000     0.403348   
C112     C      0.223440000000     0.433890000000     0.075290000000     0.404324   
C113     C      0.404110000000     0.071710000000     0.462240000000     0.317012   
C114     C      0.337940000000     0.130750000000     0.465930000000     0.402911   
C115     C      0.368710000000     0.160280000000     0.397650000000     0.409943   
C116     C      0.362360000000     0.038300000000     0.396910000000     0.409905   
C117     C      0.212840000000     0.257160000000     0.483470000000     0.313008   
C118     C      0.271070000000     0.206790000000     0.521570000000     0.404947   
C119     C      0.227830000000     0.326630000000     0.551100000000     0.407218   
C120     C      0.216040000000     0.208650000000     0.572230000000     0.409337   
C121     C      0.191510000000     0.232970000000     0.202710000000     0.312142   
C122     C      0.260290000000     0.267320000000     0.196580000000     0.405453   
C123     C      0.226800000000     0.169120000000     0.138660000000     0.40573    
C124     C      0.223620000000     0.293380000000     0.126720000000     0.406595   
C125     C      0.395090000000     0.347520000000     0.276000000000     0.311228   
C126     C      0.321610000000     0.320230000000     0.270710000000     0.412553   
C127     C      0.356480000000     0.296560000000     0.344420000000     0.405315   
C128     C      0.346290000000     0.420400000000     0.327170000000     0.412875   
C129     C      0.298490000000     0.257140000000     0.218640000000    -0.0113033  
C130     C      0.279270000000     0.325710000000     0.218190000000    -0.0105796  
C131     C      0.303830000000     0.262100000000     0.247610000000    -0.00971201 
C132     C      0.284240000000     0.330590000000     0.247200000000    -0.0102674  
C133     C      0.387420000000     0.221190000000     0.378280000000    -0.0103602  
C134     C      0.347140000000     0.198360000000     0.364110000000    -0.0077457  
C135     C      0.378130000000     0.264700000000     0.380950000000    -0.0111051  
C136     C      0.337820000000     0.240980000000     0.368800000000    -0.0102448  
C137     C      0.329290000000     0.456200000000     0.364440000000    -0.00976026 
C138     C      0.358480000000     0.490890000000     0.333280000000    -0.00895885 
C139     C      0.320630000000     0.498460000000     0.372380000000    -0.0118378  
C140     C      0.347510000000     0.531240000000     0.341020000000    -0.0110165  
C141     C      0.314110000000     0.201620000000     0.515220000000    -0.0106716  
C142     C      0.289130000000     0.139760000000     0.513110000000    -0.0102858  
C143     C      0.324510000000     0.192220000000     0.488500000000    -0.0104709  
C144     C      0.298840000000     0.129040000000     0.486280000000    -0.0105537  
C145     C      0.249370000000     0.115150000000     0.116100000000    -0.0120105  
C146     C      0.205190000000     0.112890000000     0.117880000000    -0.0130211  
C147     C      0.248460000000     0.104150000000     0.087080000000    -0.0115405  
C148     C      0.204470000000     0.104190000000     0.088770000000    -0.00981597 
C149     C      0.245100000000     0.341750000000     0.099050000000    -0.00959824 
C150     C      0.201140000000     0.337780000000     0.096710000000    -0.011915   
C151     C      0.243600000000     0.386890000000     0.105110000000    -0.00958863 
C152     C      0.199650000000     0.384030000000     0.100080000000    -0.0102321  
C153     C      0.298440000000     0.476400000000     0.981100000000    -0.0105907  
C154     C      0.284340000000     0.405190000000     0.988710000000    -0.0103357  
C155     C      0.300340000000     0.467580000000     0.951970000000    -0.0105319  
C156     C      0.285970000000     0.396400000000     0.959620000000    -0.0100994  
C157     C      0.233890000000     0.136150000000     0.613720000000    -0.010227   
C158     C      0.196560000000     0.114080000000     0.590260000000    -0.0127281  
C159     C      0.223890000000     0.178980000000     0.615260000000    -0.00923591 
C160     C      0.188350000000     0.158460000000     0.590690000000    -0.00869316 
C161     C      0.245010000000     0.389210000000     0.570310000000    -0.0112082  
C162     C      0.201340000000     0.380170000000     0.567180000000    -0.00878804 
C163     C      0.242370000000     0.402000000000     0.598960000000    -0.0119097  
C164     C      0.199010000000     0.388770000000     0.596120000000    -0.0106226  
C165     C      0.327990000000     0.268690000000     0.843760000000    -0.00996549 
C166     C      0.356460000000     0.235300000000     0.875410000000    -0.00966765 
C167     C      0.314280000000     0.228840000000     0.842440000000    -0.0118043  
C168     C      0.342140000000     0.196200000000     0.873310000000    -0.0120303  
C169     C      0.362240000000     0.473430000000     0.795320000000    -0.010118   
C170     C      0.389430000000     0.513890000000     0.822600000000    -0.00820648 
C171     C      0.348450000000     0.459770000000     0.819220000000    -0.0104012  
C172     C      0.376660000000     0.500920000000     0.847360000000    -0.0127274  
C173     C      0.299370000000     0.556910000000     0.695790000000    -0.00981382 
C174     C      0.270370000000     0.061420000000     0.750250000000    -0.010508   
C175     C      0.280770000000     0.569460000000     0.675980000000    -0.0110709  
C176     C      0.256440000000     0.067630000000     0.725150000000    -0.0101168  
C177     C      0.799010000000     0.165090000000     0.237030000000    -0.010814   
C178     C      0.826780000000     0.110070000000     0.223590000000    -0.010676   
C179     C      0.778480000000     0.135080000000     0.236080000000    -0.00999711 
C180     C      0.768460000000     0.565880000000     0.239350000000    -0.00988395 
C181     C      0.714430000000     0.188110000000     0.077730000000    -0.0107284  
C182     C      0.757990000000     0.193690000000     0.082250000000    -0.0100306  
C183     C      0.712280000000     0.176340000000     0.106490000000    -0.0117378  
C184     C      0.756350000000     0.184160000000     0.111170000000    -0.0101774  
C185     C      0.735310000000     0.388970000000     0.135150000000    -0.00957926 
C186     C      0.760400000000     0.434900000000     0.109180000000    -0.0106142  
C187     C      0.717880000000     0.422830000000     0.141180000000    -0.0105056  
C188     C      0.744530000000     0.471170000000     0.115230000000    -0.0102228  
C189     C      0.785380000000     0.244030000000     0.964630000000    -0.0110122  
C190     C      0.817880000000     0.271910000000     0.993090000000    -0.0103756  
C191     C      0.774000000000     0.286100000000     0.964280000000    -0.0101201  
C192     C      0.806130000000     0.313640000000     0.992060000000    -0.0100036  
C193     C      0.849060000000     0.267290000000     0.405360000000    -0.0102117  
C194     C      0.819910000000     0.300750000000     0.376400000000    -0.00965611 
C195     C      0.864440000000     0.256190000000     0.382090000000    -0.0117158  
C196     C      0.834130000000     0.288840000000     0.352280000000    -0.0122338  
C197     C      0.852300000000     0.574270000000     0.380530000000    -0.010388   
C198     C      0.815600000000     0.542390000000     0.362410000000    -0.0102681  
C199     C      0.865170000000     0.533820000000     0.377580000000    -0.011513   
C200     C      0.828720000000     0.502310000000     0.359160000000    -0.0111235  
C201     C      0.782160000000     0.439720000000     0.492550000000    -0.0111054  
C202     C      0.812370000000     0.491560000000     0.505140000000    -0.0107798  
C203     C      0.764190000000     0.473570000000     0.488120000000    -0.0104504  
C204     C      0.794290000000     0.525430000000     0.501360000000    -0.0104564  
C205     C      0.699870000000     0.421820000000     0.635730000000    -0.0137146  
C206     C      0.743510000000     0.427630000000     0.642080000000    -0.0108046  
C207     C      0.703000000000     0.429430000000     0.606660000000    -0.00895405 
C208     C      0.746550000000     0.436660000000     0.613100000000    -0.0102726  
C209     C      0.748900000000     0.193640000000     0.607180000000    -0.0126749  
C210     C      0.728260000000     0.147050000000     0.640320000000    -0.00992425 
C211     C      0.763290000000     0.210980000000     0.629720000000    -0.0100218  
C212     C      0.744240000000     0.164950000000     0.661180000000    -0.0102042  
C213     C      0.873140000000     0.572610000000     0.856730000000    -0.0108539  
C214     C      0.856800000000     0.532850000000     0.894650000000    -0.0115302  
C215     C      0.852700000000     0.558070000000     0.839980000000    -0.00992454 
C216     C      0.836900000000     0.517540000000     0.877080000000    -0.00983794 
C217     C      0.896540000000     0.298050000000     0.834040000000    -0.00909924 
C218     C      0.898780000000     0.345670000000     0.870940000000    -0.0110518  
C219     C      0.881240000000     0.268510000000     0.849420000000    -0.0099183  
C220     C      0.883320000000     0.318630000000     0.887900000000    -0.00909543 
C221     C      0.784240000000     0.317430000000     0.792560000000    -0.010164   
C222     C      0.764270000000     0.384030000000     0.792490000000    -0.00955518 
C223     C      0.778120000000     0.310170000000     0.764000000000    -0.00958663 
C224     C      0.757120000000     0.379100000000     0.764010000000    -0.0100771  
C225     C      0.156700000000     0.269760000000     0.561780000000    -0.0146911  
C226     C      0.163800000000     0.283570000000     0.609060000000    -0.0297906  
C227     C      0.137080000000     0.301570000000     0.561590000000    -0.0256386  
C228     C      0.144450000000     0.315810000000     0.608720000000    -0.00252721 
C229     C      0.892210000000     0.090850000000     0.867170000000    -0.0227866  
C230     C      0.875080000000     0.142950000000     0.837160000000    -0.0198412  
C231     C      0.915790000000     0.094150000000     0.853010000000    -0.0196099  
C232     C      0.898780000000     0.147100000000     0.823490000000    -0.0200587  
C233     C      0.059600000000     0.193140000000     0.740710000000    -0.00957244 
C234     C      0.026220000000     0.222520000000     0.714720000000    -0.00937941 
C235     C      0.047470000000     0.151600000000     0.740310000000    -0.0107668  
C236     C      0.014410000000     0.180860000000     0.714240000000    -0.0106674  
C237     C      0.882440000000     0.370950000000     0.363770000000    -0.0184492  
C238     C      0.858950000000     0.408830000000     0.330580000000    -0.0230857  
C239     C      0.903120000000     0.399630000000     0.359390000000    -0.0219326  
C240     C      0.879740000000     0.437390000000     0.325950000000    -0.021079   
C241     C      0.138000000000     0.448700000000     0.076780000000    -0.0276363  
C242     C      0.154730000000     0.517690000000     0.068160000000    -0.0150224  
C243     C      0.146210000000     0.451480000000     0.105040000000    -0.00848732 
C244     C      0.163220000000     0.520100000000     0.096370000000    -0.0203294  
C245     C      0.024660000000     0.489250000000     0.219750000000    -0.010389   
C246     C      0.053870000000     0.448950000000     0.246190000000    -0.0105599  
C247     C      0.015000000000     0.507730000000     0.244760000000    -0.0104347  
C248     C      0.043720000000     0.467400000000     0.271070000000    -0.0107236  
C249     C      0.166030000000     0.208870000000     0.092050000000    -0.0258802  
C250     C      0.150300000000     0.235840000000     0.134170000000    -0.0114349  
C251     C      0.148510000000     0.173660000000     0.093370000000    -0.00942972 
C252     C      0.132750000000     0.200750000000     0.135360000000    -0.0277698  
C253     C      0.066500000000     0.154820000000     0.119980000000    -0.0093555  
C254     C      0.054520000000     0.112930000000     0.082020000000    -0.0109635  
C255     C      0.081230000000     0.120060000000     0.130910000000    -0.0119775  
C256     C      0.068730000000     0.076910000000     0.092310000000    -0.0103221  
C257     C      0.118320000000     0.341730000000     0.106360000000    -0.010813   
C258     C      0.078600000000     0.364320000000     0.089800000000    -0.0101718  
C259     C      0.111070000000     0.354340000000     0.133910000000    -0.0125612  
C260     C      0.071380000000     0.374890000000     0.117500000000    -0.0104381  
C261     C      0.932500000000     0.437280000000     0.835420000000    -0.0259698  
C262     C      0.937150000000     0.380790000000     0.803250000000    -0.0199652  
C263     C      0.958380000000     0.448450000000     0.831900000000    -0.00963245 
C264     C      0.963130000000     0.391680000000     0.799930000000    -0.0233237  
C265     C      0.963570000000     0.247920000000     0.850570000000    -0.0116601  
C266     C      0.007290000000     0.237720000000     0.848720000000    -0.0109105  
C267     C      0.966970000000     0.293010000000     0.844440000000    -0.0100425  
C268     C      0.010610000000     0.282240000000     0.841600000000    -0.00976006 
C269     C      0.027060000000     0.560390000000     0.850690000000    -0.0114674  
C270     C      0.015710000000     0.515460000000     0.811750000000    -0.00904981 
C271     C      0.042780000000     0.525760000000     0.860270000000    -0.0109977  
C272     C      0.032460000000     0.483380000000     0.822330000000    -0.0111049  
C273     C      0.072240000000     0.306030000000     0.961150000000    -0.0104301  
C274     C      0.033950000000     0.278850000000     0.977780000000    -0.0102321  
C275     C      0.061760000000     0.348710000000     0.959830000000    -0.01039    
C276     C      0.023170000000     0.321370000000     0.976050000000    -0.0108558  
C277     C      0.924180000000     0.301800000000     0.321080000000    -0.017817   
C278     C      0.927170000000     0.246240000000     0.354110000000    -0.0214714  
C279     C      0.939780000000     0.277630000000     0.302480000000    -0.0272579  
C280     C      0.943180000000     0.222120000000     0.335860000000    -0.0196483  
C281     C      0.962220000000     0.353090000000     0.390360000000    -0.0113847  
C282     C      0.989790000000     0.316670000000     0.358720000000    -0.0134608  
C283     C      0.974520000000     0.331030000000     0.412660000000    -0.0104396  
C284     C      0.000940000000     0.295300000000     0.382030000000    -0.00965557 
C285     C      0.930250000000     0.545700000000     0.372160000000    -0.0108047  
C286     C      0.971520000000     0.571490000000     0.363450000000    -0.0102036  
C287     C      0.921420000000     0.589560000000     0.371800000000    -0.0110776  
C288     C      0.961820000000     0.614660000000     0.362470000000    -0.0103269  
C289     C      0.131870000000     0.433890000000     0.604680000000    -0.0294987  
C290     C      0.153880000000     0.466970000000     0.568010000000    -0.0250012  
C291     C      0.121240000000     0.474860000000     0.612000000000    -0.0119234  
C292     C      0.143710000000     0.508120000000     0.575920000000    -0.0156034  
C293     C      0.109210000000     0.089910000000     0.615330000000    -0.00972015 
C294     C      0.123400000000     0.133780000000     0.579490000000    -0.00890278 
C295     C      0.095370000000     0.124930000000     0.627240000000    -0.0103714  
C296     C      0.110350000000     0.170410000000     0.590630000000    -0.0113547  
C297     C      0.047760000000     0.420660000000     0.625410000000    -0.0120014  
C298     C      0.050650000000     0.379340000000     0.585150000000    -0.0100065  
C299     C      0.068230000000     0.397380000000     0.637740000000    -0.0101592  
C300     C      0.071410000000     0.355560000000     0.596180000000    -0.0118275  
C301     C      0.988720000000     0.082090000000     0.481740000000    -0.0100338  
C302     C      0.000170000000     0.644380000000     0.510880000000    -0.0104883  
C303     C      0.993150000000     0.066470000000     0.509320000000    -0.00991811 
C304     C      0.001940000000     0.627160000000     0.538460000000    -0.00989488 
C305     C      0.672610000000     0.329190000000     0.113240000000    -0.0163442  
C306     C      0.646050000000     0.310770000000     0.076350000000    -0.0168129  
C307     C      0.682560000000     0.286070000000     0.113480000000    -0.0233112  
C308     C      0.656050000000     0.267740000000     0.076220000000    -0.0283562  
C309     C      0.411130000000     0.102630000000     0.356710000000    -0.0191234  
C310     C      0.381200000000     0.116380000000     0.322110000000    -0.0247774  
C311     C      0.426590000000     0.136530000000     0.346030000000    -0.0126716  
C312     C      0.396810000000     0.150100000000     0.311120000000    -0.0199096  
C313     C      0.548570000000     0.241640000000     0.264890000000    -0.0107421  
C314     C      0.566310000000     0.173230000000     0.257960000000    -0.0106185  
C315     C      0.552390000000     0.252380000000     0.236310000000    -0.00977204 
C316     C      0.570610000000     0.183150000000     0.229290000000    -0.0102434  
C317     C      0.681650000000     0.223050000000     0.599010000000    -0.02786    
C318     C      0.701590000000     0.290490000000     0.595320000000    -0.0212493  
C319     C      0.659570000000     0.243810000000     0.609640000000    -0.00766359 
C320     C      0.679410000000     0.311380000000     0.605350000000    -0.0245762  
C321     C      0.392020000000     0.433490000000     0.398180000000    -0.0264553  
C322     C      0.407820000000     0.399330000000     0.358340000000    -0.0142554  
C323     C      0.408430000000     0.469500000000     0.393490000000    -0.0184512  
C324     C      0.424370000000     0.435200000000     0.353710000000    -0.0227102  
C325     C      0.460230000000     0.296510000000     0.353780000000    -0.0100365  
C326     C      0.493400000000     0.266210000000     0.380560000000    -0.00973024 
C327     C      0.449520000000     0.253980000000     0.351290000000    -0.0102419  
C328     C      0.481200000000     0.225150000000     0.379040000000    -0.0108498  
C329     C      0.505120000000     0.515770000000     0.325950000000    -0.00963058 
C330     C      0.529190000000     0.547160000000     0.360870000000    -0.0112355  
C331     C      0.488650000000     0.496730000000     0.345980000000    -0.0110227  
C332     C      0.513630000000     0.528180000000     0.381890000000    -0.0100833  
C333     C      0.552230000000     0.366700000000     0.471860000000    -0.00969709 
C334     C      0.518230000000     0.347800000000     0.500640000000    -0.0100504  
C335     C      0.562780000000     0.324400000000     0.475930000000    -0.0104753  
C336     C      0.528720000000     0.305460000000     0.504320000000    -0.0100381  
C337     C      0.659980000000     0.636550000000     0.599810000000    -0.0202598  
C338     C      0.654880000000     0.562230000000     0.608360000000    -0.0185933  
C339     C      0.641280000000     0.634550000000     0.578450000000    -0.0271568  
C340     C      0.636060000000     0.560190000000     0.587150000000    -0.0206957  
C341     C      0.587140000000     0.230130000000     0.650140000000    -0.0121465  
C342     C      0.559400000000     0.189550000000     0.623820000000    -0.0106658  
C343     C      0.600620000000     0.192330000000     0.658630000000    -0.0088127  
C344     C      0.571630000000     0.150010000000     0.631410000000    -0.0108697  
C345     C      0.590720000000     0.422890000000     0.587670000000    -0.0079988  
C346     C      0.630610000000     0.400460000000     0.606440000000    -0.0086803  
C347     C      0.599420000000     0.466460000000     0.589330000000    -0.0111937  
C348     C      0.637160000000     0.445360000000     0.608690000000    -0.0127583  
C349     C      0.379390000000     0.332370000000     0.802860000000    -0.0248962  
C350     C      0.403990000000     0.375010000000     0.832470000000    -0.022838   
C351     C      0.392790000000     0.294490000000     0.811670000000    -0.021373   
C352     C      0.417020000000     0.337130000000     0.841760000000    -0.017291   
C353     C      0.537710000000     0.366880000000     0.712700000000    -0.00961637 
C354     C      0.505910000000     0.415650000000     0.701890000000    -0.00990226 
C355     C      0.554560000000     0.401790000000     0.718880000000    -0.0113409  
C356     C      0.521700000000     0.451670000000     0.708690000000    -0.0103972  
C357     C      0.703560000000     0.476820000000     0.049720000000    -0.0252696  
C358     C      0.695930000000     0.540380000000     0.075230000000    -0.0220602  
C359     C      0.688110000000     0.452730000000     0.068630000000    -0.0110242  
C360     C      0.679820000000     0.516850000000     0.093610000000    -0.0128525  
C361     C      0.604820000000     0.186260000000     0.097940000000    -0.0103904  
C362     C      0.645560000000     0.168320000000     0.112630000000    -0.00883186 
C363     C      0.597560000000     0.141880000000     0.099920000000    -0.0104688  
C364     C      0.638820000000     0.123340000000     0.113040000000    -0.0120339  
C365     C      0.591460000000     0.392260000000     0.091620000000    -0.0100552  
C366     C      0.627520000000     0.425330000000     0.112230000000    -0.0114659  
C367     C      0.581770000000     0.384950000000     0.119010000000    -0.0113899  
C368     C      0.616670000000     0.417840000000     0.138920000000    -0.0107001  
C369     C      0.404850000000     0.189750000000     0.828250000000    -0.0194756  
C370     C      0.418820000000     0.122400000000     0.844810000000    -0.00926012 
C371     C      0.424210000000     0.189410000000     0.807570000000    -0.0259353  
C372     C      0.437730000000     0.121420000000     0.823710000000    -0.0282606  
C373     C      0.454080000000     0.507670000000     0.832340000000    -0.0107245  
C374     C      0.495510000000     0.515970000000     0.817460000000    -0.0106707  
C375     C      0.457580000000     0.461800000000     0.834860000000    -0.00981895 
C376     C      0.500040000000     0.470700000000     0.821020000000    -0.00961519 
C377     C      0.510480000000     0.231520000000     0.833660000000    -0.0103267  
C378     C      0.483290000000     0.269300000000     0.862790000000    -0.00913258 
C379     C      0.498360000000     0.191310000000     0.840680000000    -0.0123081  
C380     C      0.469340000000     0.230990000000     0.868510000000    -0.010221   
C381     C      0.526470000000     0.034090000000     0.976530000000    -0.00965134 
C382     C      0.567650000000     0.569140000000     0.931260000000    -0.0104923  
C383     C      0.538620000000     0.044480000000     0.002130000000    -0.0111062  
C384     C      0.575340000000     0.571970000000     0.959630000000    -0.0104578  
C385     C      0.461910000000     0.623440000000     0.935580000000     0.314919   
C386     C      0.525860000000     0.570120000000     0.918010000000     0.405762   
C387     C      0.480880000000     0.555130000000     0.855010000000     0.404731   
C388     C      0.489130000000     0.677710000000     0.867320000000     0.408201   
C389     C      0.654770000000     0.013860000000     0.010670000000     0.319326   
C390     C      0.581070000000     0.047410000000     0.011860000000     0.406671   
C391     C      0.613100000000     0.959030000000     0.073170000000     0.401665   
C392     C      0.617680000000     0.568680000000     0.056550000000     0.404202   
C393     C      0.456760000000     0.853600000000     0.729560000000     0.315991   
C394     C      0.514220000000     0.921310000000     0.762340000000     0.402202   
C395     C      0.460810000000     0.907800000000     0.816280000000     0.40749    
C396     C      0.484870000000     0.794840000000     0.795440000000     0.405039   
C397     C      0.650430000000     0.064920000000     0.711840000000     0.309763   
C398     C      0.581550000000     0.021590000000     0.733580000000     0.417051   
C399     C      0.589120000000     0.596700000000     0.661890000000     0.402507   
C400     C      0.604020000000     0.994290000000     0.656690000000     0.398761   
C401     C      0.425730000000     0.928510000000     0.459670000000     0.316763   
C402     C      0.493170000000     0.889190000000     0.478290000000     0.406268   
C403     C      0.474730000000     0.842860000000     0.405840000000     0.408309   
C404     C      0.472300000000     0.969760000000     0.402460000000     0.408431   
C405     C      0.624990000000     0.756200000000     0.538530000000     0.310674   
C406     C      0.560670000000     0.818710000000     0.535580000000     0.40459    
C407     C      0.585840000000     0.737200000000     0.609090000000     0.404755   
C408     C      0.597940000000     0.855370000000     0.601270000000     0.408409   
C409     C      0.461970000000     0.676480000000     0.278500000000     0.314922   
C410     C      0.537180000000     0.683150000000     0.274450000000     0.405615   
C411     C      0.495020000000     0.710370000000     0.349970000000     0.404594   
C412     C      0.511360000000     0.590060000000     0.326570000000     0.407381   
C413     C      0.661940000000     0.747590000000     0.171410000000     0.314105   
C414     C      0.588110000000     0.732860000000     0.191420000000     0.407054   
C415     C      0.604840000000     0.828560000000     0.134520000000     0.402889   
C416     C      0.615820000000     0.707220000000     0.109910000000     0.407918   
C417     C      0.098860000000     0.017570000000     0.490710000000     0.318842   
C418     C      0.034010000000     0.067010000000     0.525830000000     0.410773   
C419     C      0.069890000000     0.954270000000     0.558340000000     0.405913   
C420     C      0.093480000000     0.570000000000     0.581170000000     0.40458    
C421     C      0.899350000000     0.691000000000     0.471960000000     0.311035   
C422     C      0.967830000000     0.643750000000     0.478850000000     0.410834   
C423     C      0.940190000000     0.639840000000     0.400850000000     0.402955   
C424     C      0.949160000000     0.759450000000     0.426580000000     0.409232   
C425     C      0.926530000000     0.904150000000     0.947570000000     0.315892   
C426     C      0.998990000000     0.842340000000     0.949210000000     0.408621   
C427     C      0.949680000000     0.817750000000     0.888180000000     0.405066   
C428     C      0.982700000000     0.941230000000     0.895400000000     0.403839   
C429     C      0.141760000000     0.720310000000     0.005400000000     0.311435   
C430     C      0.066190000000     0.754130000000     0.994940000000     0.41229    
C431     C      0.088270000000     0.673210000000     0.059890000000     0.411453   
C432     C      0.105940000000     0.806370000000     0.056820000000     0.406184   
C433     C      0.121490000000     0.993940000000     0.190350000000     0.318337   
C434     C      0.044420000000     0.956510000000     0.193980000000     0.412851   
C435     C      0.093330000000     0.554170000000     0.132390000000     0.406316   
C436     C      0.088110000000     0.916110000000     0.130440000000     0.396496   
C437     C      0.913130000000     0.892580000000     0.278130000000     0.318013   
C438     C      0.982180000000     0.933090000000     0.272640000000     0.405233   
C439     C      0.949690000000     0.990930000000     0.334450000000     0.405553   
C440     C      0.949930000000     0.867520000000     0.349410000000     0.403502   
C441     C      0.952980000000     0.623040000000     0.764600000000     0.316773   
C442     C      0.024230000000     0.690500000000     0.754380000000     0.410833   
C443     C      0.977870000000     0.710840000000     0.820190000000     0.401912   
C444     C      0.012180000000     0.589300000000     0.810010000000     0.395176   
C445     C      0.160030000000     0.799060000000     0.671110000000     0.318421   
C446     C      0.084630000000     0.770420000000     0.692960000000     0.411303   
C447     C      0.101160000000     0.839310000000     0.621910000000     0.397628   
C448     C      0.112990000000     0.706820000000     0.630270000000     0.399855   
C449     C      0.863800000000     0.961500000000     0.794400000000     0.319184   
C450     C      0.794740000000     0.893260000000     0.796830000000     0.409348   
C451     C      0.845450000000     0.869650000000     0.855410000000     0.410988   
C452     C      0.814110000000     0.990660000000     0.855270000000     0.404395   
C453     C      0.671990000000     0.797280000000     0.689300000000     0.31669    
C454     C      0.742570000000     0.842550000000     0.715380000000     0.412807   
C455     C      0.732870000000     0.748010000000     0.652530000000     0.406731   
C456     C      0.715360000000     0.881220000000     0.642070000000     0.40201    
C457     C      0.855700000000     0.884290000000     0.451290000000     0.316702   
C458     C      0.792250000000     0.966570000000     0.456560000000     0.413027   
C459     C      0.834290000000     0.965950000000     0.386850000000     0.405205   
C460     C      0.796260000000     0.852350000000     0.407460000000     0.405981   
C461     C      0.674280000000     0.122360000000     0.539560000000     0.314218   
C462     C      0.737680000000     0.065620000000     0.510680000000     0.409945   
C463     C      0.730980000000     0.616910000000     0.589910000000     0.40266    
C464     C      0.713180000000     0.007750000000     0.575110000000     0.403055   
C465     C      0.928120000000     0.654840000000     0.946480000000     0.312907   
C466     C      0.859240000000     0.681400000000     0.976390000000     0.406589   
C467     C      0.868980000000     0.728880000000     0.902160000000     0.406975   
C468     C      0.871940000000     0.602650000000     0.900600000000     0.402902   
C469     C      0.722550000000     0.830800000000     0.022830000000     0.322824   
C470     C      0.792110000000     0.759290000000     0.028500000000     0.409316   
C471     C      0.770520000000     0.863640000000     0.081460000000     0.396934   
C472     C      0.738770000000     0.741550000000     0.085260000000     0.398131   
C473     C      0.695660000000     0.044900000000     0.187070000000     0.310246   
C474     C      0.768330000000     0.087700000000     0.200480000000     0.41177    
C475     C      0.749940000000     0.995600000000     0.136430000000     0.411595   
C476     C      0.703670000000     0.630680000000     0.150980000000     0.407041   
C477     C      0.862680000000     0.699690000000     0.288510000000     0.31884    
C478     C      0.792680000000     0.645860000000     0.277760000000     0.409822   
C479     C      0.829800000000     0.608160000000     0.345600000000     0.406676   
C480     C      0.808130000000     0.729780000000     0.346420000000     0.398965   
C481     C      0.384470000000     0.644490000000     0.735720000000     0.313862   
C482     C      0.312700000000     0.591120000000     0.735780000000     0.409967   
C483     C      0.365150000000     0.547560000000     0.789060000000     0.409069   
C484     C      0.336030000000     0.674990000000     0.799450000000     0.405394   
C485     C      0.177270000000     0.976030000000     0.674450000000     0.313572   
C486     C      0.248300000000     0.023670000000     0.687470000000     0.41012    
C487     C      0.230660000000     0.940100000000     0.617600000000     0.401822   
C488     C      0.195670000000     0.584950000000     0.609410000000     0.411453   
C489     C      0.389320000000     0.809690000000     0.940840000000     0.311673   
C490     C      0.320600000000     0.864720000000     0.953560000000     0.408216   
C491     C      0.350130000000     0.910220000000     0.890620000000     0.406596   
C492     C      0.342820000000     0.784560000000     0.877910000000     0.403399   
C493     C      0.194290000000     0.984800000000     0.005960000000     0.314082   
C494     C      0.258050000000     0.929930000000     0.022340000000     0.404706   
C495     C      0.228140000000     0.559100000000     0.066500000000     0.410765   
C496     C      0.216800000000     0.925990000000     0.088770000000     0.406371   
C497     C      0.407690000000     0.553600000000     0.446690000000     0.31828    
C498     C      0.344080000000     0.618610000000     0.466390000000     0.399683   
C499     C      0.375190000000     0.662400000000     0.398380000000     0.399875   
C500     C      0.349600000000     0.549480000000     0.387530000000     0.394789   
C501     C      0.238110000000     0.769300000000     0.475700000000     0.319381   
C502     C      0.282720000000     0.693910000000     0.525090000000     0.407114   
C503     C      0.251910000000     0.816510000000     0.552510000000     0.408256   
C504     C      0.210400000000     0.706390000000     0.548380000000     0.403766   
C505     C      0.180060000000     0.709440000000     0.212330000000     0.315737   
C506     C      0.248010000000     0.751280000000     0.215410000000     0.403956   
C507     C      0.220640000000     0.665560000000     0.146060000000     0.404636   
C508     C      0.215400000000     0.791050000000     0.146250000000     0.408331   
C509     C      0.376150000000     0.860960000000     0.255920000000     0.312952   
C510     C      0.313860000000     0.804250000000     0.282880000000     0.406522   
C511     C      0.371170000000     0.792440000000     0.337350000000     0.401401   
C512     C      0.354620000000     0.909210000000     0.329490000000     0.404222   
C513     C      0.286100000000     0.740050000000     0.237230000000    -0.0108577  
C514     C      0.263820000000     0.806160000000     0.242790000000    -0.0103597  
C515     C      0.293960000000     0.743010000000     0.265640000000    -0.0109024  
C516     C      0.271740000000     0.807610000000     0.271140000000    -0.0106263  
C517     C      0.391440000000     0.697610000000     0.360200000000    -0.0110286  
C518     C      0.359760000000     0.729930000000     0.388880000000    -0.00867756 
C519     C      0.399600000000     0.740510000000     0.352760000000    -0.00995982 
C520     C      0.370700000000     0.770920000000     0.383150000000    -0.0107277  
C521     C      0.337360000000     0.948560000000     0.365480000000    -0.0107924  
C522     C      0.379660000000     0.958490000000     0.352120000000    -0.0119938  
C523     C      0.335630000000     0.993830000000     0.371910000000    -0.0101705  
C524     C      0.377480000000     0.003610000000     0.357960000000    -0.00768609 
C525     C      0.325500000000     0.680080000000     0.524140000000    -0.0100195  
C526     C      0.297150000000     0.624400000000     0.516830000000    -0.0101772  
C527     C      0.336410000000     0.673740000000     0.497240000000    -0.0105354  
C528     C      0.306310000000     0.617060000000     0.489310000000    -0.0100806  
C529     C      0.245340000000     0.614270000000     0.123630000000    -0.0122369  
C530     C      0.201710000000     0.617410000000     0.115920000000    -0.0137504  
C531     C      0.249270000000     0.608900000000     0.094240000000    -0.0112372  
C532     C      0.205930000000     0.615150000000     0.086690000000    -0.00922701 
C533     C      0.237530000000     0.844530000000     0.123620000000    -0.00945271 
C534     C      0.193760000000     0.836410000000     0.116240000000    -0.011597   
C535     C      0.233970000000     0.890120000000     0.126210000000    -0.010352   
C536     C      0.191230000000     0.882770000000     0.116350000000    -0.00997053 
C537     C      0.300040000000     0.921260000000     0.011150000000    -0.010853   
C538     C      0.270950000000     0.867320000000     0.999830000000    -0.0106662  
C539     C      0.310120000000     0.919760000000     0.983660000000    -0.0100379  
C540     C      0.280630000000     0.865100000000     0.972090000000    -0.0104999  
C541     C      0.196450000000     0.658560000000     0.604520000000    -0.00979611 
C542     C      0.194640000000     0.610990000000     0.564770000000    -0.0102786  
C543     C      0.186430000000     0.692030000000     0.587300000000    -0.0109778  
C544     C      0.184420000000     0.646500000000     0.549290000000    -0.00990203 
C545     C      0.264910000000     0.853160000000     0.592110000000    -0.00907121 
C546     C      0.246210000000     0.890790000000     0.555580000000    -0.00999061 
C547     C      0.247550000000     0.871870000000     0.611470000000    -0.011139   
C548     C      0.228220000000     0.909550000000     0.574040000000    -0.0108349  
C549     C      0.350500000000     0.764900000000     0.832730000000    -0.0102368  
C550     C      0.330240000000     0.716260000000     0.864070000000    -0.0124588  
C551     C      0.335490000000     0.747790000000     0.810810000000    -0.0124747  
C552     C      0.317340000000     0.697320000000     0.840740000000    -0.0117565  
C553     C      0.328820000000     0.975430000000     0.840900000000    -0.0097446  
C554     C      0.372340000000     0.986130000000     0.846250000000    -0.00953596 
C555     C      0.326870000000     0.963860000000     0.869420000000    -0.00905638 
C556     C      0.370550000000     0.971740000000     0.874550000000    -0.0106875  
C557     C      0.303180000000     0.029440000000     0.724890000000    -0.0105622  
C558     C      0.270980000000     0.571320000000     0.732170000000    -0.0104072  
C559     C      0.289530000000     0.035970000000     0.699660000000    -0.00984533 
C560     C      0.252220000000     0.583000000000     0.712220000000    -0.0110173  
C561     C      0.751790000000     0.642910000000     0.261490000000    -0.0104013  
C562     C      0.784080000000     0.603660000000     0.239190000000    -0.00994414 
C563     C      0.736440000000     0.604820000000     0.261230000000    -0.00902865 
C564     C      0.806530000000     0.079590000000     0.222800000000    -0.00990064 
C565     C      0.713240000000     0.681870000000     0.091870000000    -0.00938595 
C566     C      0.739400000000     0.708290000000     0.128100000000    -0.0100685  
C567     C      0.694380000000     0.672110000000     0.112150000000    -0.0121338  
C568     C      0.719620000000     0.700150000000     0.147400000000    -0.0101906  
C569     C      0.776000000000     0.895510000000     0.124540000000    -0.0123173  
C570     C      0.778670000000     0.937270000000     0.084420000000    -0.011573   
C571     C      0.755770000000     0.921540000000     0.134760000000    -0.00908922 
C572     C      0.758660000000     0.964560000000     0.093860000000    -0.00994807 
C573     C      0.824100000000     0.670910000000     0.003810000000    -0.00991836 
C574     C      0.852540000000     0.725620000000     0.014630000000    -0.0103576  
C575     C      0.804250000000     0.701810000000     0.001000000000    -0.0111019  
C576     C      0.833120000000     0.757720000000     0.012770000000    -0.0111927  
C577     C      0.790100000000     0.778440000000     0.408480000000    -0.0105927  
C578     C      0.774390000000     0.818750000000     0.371980000000    -0.00894987 
C579     C      0.807480000000     0.756510000000     0.390840000000    -0.00936625 
C580     C      0.790100000000     0.796670000000     0.352410000000    -0.0114196  
C581     C      0.864000000000     0.053790000000     0.369290000000    -0.00853687 
C582     C      0.823120000000     0.051940000000     0.350370000000    -0.00973479 
C583     C      0.865530000000     0.007650000000     0.366710000000    -0.0134737  
C584     C      0.825140000000     0.005970000000     0.347590000000    -0.0112927  
C585     C      0.752920000000     0.984850000000     0.472920000000    -0.0101608  
C586     C      0.789130000000     0.023120000000     0.487960000000    -0.0111542  
C587     C      0.739990000000     0.025280000000     0.470390000000    -0.0103136  
C588     C      0.775140000000     0.062740000000     0.486260000000    -0.00974621 
C589     C      0.693170000000     0.937970000000     0.622580000000    -0.0131656  
C590     C      0.737110000000     0.932440000000     0.616670000000    -0.0115887  
C591     C      0.690760000000     0.950650000000     0.594110000000    -0.0101277  
C592     C      0.734290000000     0.945440000000     0.588320000000    -0.0100163  
C593     C      0.744250000000     0.687250000000     0.596390000000    -0.0132921  
C594     C      0.720820000000     0.649700000000     0.631250000000    -0.0101217  
C595     C      0.755570000000     0.712800000000     0.618010000000    -0.0106866  
C596     C      0.734470000000     0.673110000000     0.651840000000    -0.0110851  
C597     C      0.820190000000     0.092290000000     0.866420000000    -0.0092618  
C598     C      0.831280000000     0.049620000000     0.906100000000    -0.00922605 
C599     C      0.800730000000     0.061630000000     0.860490000000    -0.0113496  
C600     C      0.811260000000     0.020750000000     0.899120000000    -0.0112065  
C601     C      0.877800000000     0.824310000000     0.869370000000    -0.00949598 
C602     C      0.838790000000     0.822760000000     0.892100000000    -0.00951694 
C603     C      0.877320000000     0.778060000000     0.867040000000    -0.0108186  
C604     C      0.837810000000     0.776750000000     0.889050000000    -0.010504   
C605     C      0.780470000000     0.833510000000     0.772380000000    -0.00973034 
C606     C      0.755300000000     0.895230000000     0.776490000000    -0.0108299  
C607     C      0.777770000000     0.834220000000     0.742840000000    -0.0105835  
C608     C      0.752000000000     0.896520000000     0.746970000000    -0.00999498 
C609     C      0.181350000000     0.805060000000     0.558520000000    -0.0134119  
C610     C      0.184360000000     0.810600000000     0.606930000000    -0.0217557  
C611     C      0.166200000000     0.843450000000     0.557800000000    -0.0262444  
C612     C      0.170090000000     0.849780000000     0.606300000000    -0.0173611  
C613     C      0.945780000000     0.566610000000     0.831620000000    -0.0131186  
C614     C      0.930870000000     0.630490000000     0.852420000000    -0.0272893  
C615     C      0.954260000000     0.551560000000     0.858140000000    -0.0272001  
C616     C      0.939530000000     0.615410000000     0.878890000000    -0.0129664  
C617     C      0.075770000000     0.751450000000     0.738510000000    -0.00960069 
C618     C      0.043250000000     0.765780000000     0.707310000000    -0.00914818 
C619     C      0.065280000000     0.709670000000     0.744510000000    -0.011274   
C620     C      0.032530000000     0.724090000000     0.712500000000    -0.0106986  
C621     C      0.853240000000     0.849900000000     0.358590000000    -0.022049   
C622     C      0.830500000000     0.894110000000     0.327940000000    -0.0205611  
C623     C      0.876190000000     0.864140000000     0.346120000000    -0.0220025  
C624     C      0.853500000000     0.908050000000     0.315340000000    -0.0232047  
C625     C      0.121060000000     0.994780000000     0.087590000000    -0.0217101  
C626     C      0.145180000000     0.043700000000     0.113740000000    -0.0175065  
C627     C      0.140050000000     0.962400000000     0.091070000000    -0.0224864  
C628     C      0.164220000000     0.011270000000     0.117060000000    -0.024411   
C629     C      0.004820000000     0.971300000000     0.211390000000    -0.0101899  
C630     C      0.025390000000     0.906690000000     0.223250000000    -0.0102842  
C631     C      0.999420000000     0.979250000000     0.240020000000    -0.0109386  
C632     C      0.019850000000     0.913970000000     0.252010000000    -0.0111347  
C633     C      0.170350000000     0.716410000000     0.088570000000    -0.0275222  
C634     C      0.147920000000     0.742130000000     0.127160000000    -0.0161287  
C635     C      0.151310000000     0.684330000000     0.083930000000    -0.00441792 
C636     C      0.128700000000     0.710820000000     0.122110000000    -0.0240241  
C637     C      0.069220000000     0.645550000000     0.099480000000    -0.00948629 
C638     C      0.088030000000     0.599200000000     0.067330000000    -0.00954905 
C639     C      0.082260000000     0.624520000000     0.121840000000    -0.0117849  
C640     C      0.102620000000     0.579410000000     0.088670000000    -0.0114968  
C641     C      0.123640000000     0.844700000000     0.093360000000    -0.0117222  
C642     C      0.092720000000     0.876270000000     0.065600000000    -0.00922274 
C643     C      0.109050000000     0.853270000000     0.117810000000    -0.0126516  
C644     C      0.077110000000     0.883020000000     0.089280000000    -0.0125144  
C645     C      0.878910000000     0.951970000000     0.902980000000    -0.0238445  
C646     C      0.903230000000     0.928290000000     0.865330000000    -0.0173324  
C647     C      0.897070000000     0.985040000000     0.908780000000    -0.0205655  
C648     C      0.921180000000     0.961630000000     0.870810000000    -0.0198215  
C649     C      0.970070000000     0.729540000000     0.865750000000    -0.0103556  
C650     C      0.963760000000     0.780360000000     0.829150000000    -0.0109079  
C651     C      0.947480000000     0.744760000000     0.878380000000    -0.0117238  
C652     C      0.941690000000     0.795350000000     0.843250000000    -0.0104018  
C653     C      0.972750000000     0.038550000000     0.871920000000    -0.0105054  
C654     C      0.988250000000     0.992220000000     0.836210000000    -0.0107076  
C655     C      0.987870000000     0.015490000000     0.891500000000    -0.0109808  
C656     C      0.002720000000     0.969760000000     0.856740000000    -0.0107424  
C657     C      0.053720000000     0.788470000000     0.954470000000    -0.00897515 
C658     C      0.023840000000     0.757930000000     0.984200000000    -0.00975772 
C659     C      0.041350000000     0.829580000000     0.956150000000    -0.0112725  
C660     C      0.011050000000     0.798710000000     0.986020000000    -0.0101214  
C661     C      0.908820000000     0.745940000000     0.332070000000    -0.0232777  
C662     C      0.877860000000     0.744720000000     0.366870000000    -0.023636   
C663     C      0.923540000000     0.715810000000     0.347820000000    -0.0217623  
C664     C      0.892620000000     0.714500000000     0.382420000000    -0.0186076  
C665     C      0.928930000000     0.835170000000     0.385770000000    -0.0109845  
C666     C      0.970320000000     0.813090000000     0.373480000000    -0.0106815  
C667     C      0.935060000000     0.827740000000     0.414270000000    -0.0092481  
C668     C      0.975440000000     0.805910000000     0.402370000000    -0.0102772  
C669     C      0.928850000000     0.051080000000     0.351410000000    -0.00727448 
C670     C      0.972580000000     0.041660000000     0.358930000000    -0.00977738 
C671     C      0.933150000000     0.096480000000     0.347120000000    -0.0131012  
C672     C      0.976140000000     0.086810000000     0.353580000000    -0.0103693  
C673     C      0.151090000000     0.952470000000     0.606210000000    -0.0132651  
C674     C      0.168190000000     0.976600000000     0.564030000000    -0.0284399  
C675     C      0.137780000000     0.992550000000     0.608990000000    -0.0260853  
C676     C      0.154840000000     0.016640000000     0.566840000000    -0.0138473  
C677     C      0.109300000000     0.595170000000     0.622950000000    -0.0105574  
C678     C      0.122430000000     0.625910000000     0.581490000000    -0.0109191  
C679     C      0.099830000000     0.635910000000     0.632510000000    -0.00971148 
C680     C      0.113090000000     0.667500000000     0.589610000000    -0.0107351  
C681     C      0.059370000000     0.914120000000     0.597210000000    -0.0101696  
C682     C      0.080380000000     0.881530000000     0.560340000000    -0.00938982 
C683     C      0.079490000000     0.903510000000     0.615750000000    -0.0107076  
C684     C      0.100840000000     0.870030000000     0.578110000000    -0.013223   
C685     C      0.981440000000     0.578180000000     0.496380000000    -0.0107651  
C686     C      0.008350000000     0.148760000000     0.494510000000    -0.00967513 
C687     C      0.983320000000     0.562640000000     0.524300000000    -0.00958455 
C688     C      0.012050000000     0.131480000000     0.521780000000    -0.0101269  
C689     C      0.687540000000     0.858310000000     0.113940000000    -0.0273599  
C690     C      0.660320000000     0.823820000000     0.082750000000    -0.0150266  
C691     C      0.702120000000     0.819460000000     0.116130000000    -0.00797457 
C692     C      0.674780000000     0.784840000000     0.084900000000    -0.0244264  
C693     C      0.447210000000     0.576840000000     0.388840000000    -0.02537    
C694     C      0.421450000000     0.558740000000     0.351050000000    -0.0220885  
C695     C      0.458600000000     0.610480000000     0.372690000000    -0.0159834  
C696     C      0.432970000000     0.592180000000     0.334840000000    -0.0172341  
C697     C      0.565280000000     0.733880000000     0.257290000000    -0.0104367  
C698     C      0.564700000000     0.663210000000     0.239440000000    -0.0110225  
C699     C      0.564080000000     0.751240000000     0.229720000000    -0.0110501  
C700     C      0.563400000000     0.680030000000     0.211770000000    -0.0103051  
C701     C      0.686670000000     0.742840000000     0.596650000000    -0.0259112  
C702     C      0.698350000000     0.814010000000     0.585540000000    -0.0185951  
C703     C      0.662080000000     0.757500000000     0.604060000000    -0.0118087  
C704     C      0.673690000000     0.828740000000     0.592590000000    -0.0226304  
C705     C      0.417440000000     0.858150000000     0.348320000000    -0.0169587  
C706     C      0.445400000000     0.843240000000     0.311890000000    -0.0211541  
C707     C      0.434130000000     0.890690000000     0.358530000000    -0.0170213  
C708     C      0.462400000000     0.875240000000     0.322560000000    -0.0246871  
C709     C      0.460300000000     0.781550000000     0.383160000000    -0.0105095  
C710     C      0.502340000000     0.805150000000     0.377950000000    -0.00930849 
C711     C      0.469030000000     0.737640000000     0.384480000000    -0.0114382  
C712     C      0.510540000000     0.761300000000     0.380650000000    -0.0107813  
C713     C      0.463020000000     0.015950000000     0.339820000000    -0.0123231  
C714     C      0.504780000000     0.025630000000     0.353740000000    -0.0109322  
C715     C      0.455300000000     0.013450000000     0.368240000000    -0.00915512 
C716     C      0.497400000000     0.022530000000     0.382340000000    -0.0109325  
C717     C      0.529010000000     0.900100000000     0.504620000000    -0.0108025  
C718     C      0.501710000000     0.842870000000     0.514980000000    -0.0105076  
C719     C      0.549610000000     0.870390000000     0.502960000000    -0.0106172  
C720     C      0.522110000000     0.812710000000     0.513650000000    -0.0108122  
C721     C      0.660310000000     0.129780000000     0.629090000000    -0.0249828  
C722     C      0.664300000000     0.054270000000     0.626270000000    -0.0210026  
C723     C      0.640000000000     0.128390000000     0.609660000000    -0.0252837  
C724     C      0.644200000000     0.052960000000     0.606450000000    -0.0179569  
C725     C      0.600810000000     0.705410000000     0.649290000000    -0.0110024  
C726     C      0.560670000000     0.688930000000     0.633510000000    -0.0109711  
C727     C      0.607680000000     0.660790000000     0.649560000000    -0.0100148  
C728     C      0.565980000000     0.643400000000     0.634890000000    -0.0109155  
C729     C      0.580220000000     0.903050000000     0.632450000000    -0.00976491 
C730     C      0.623810000000     0.904740000000     0.623540000000    -0.0103622  
C731     C      0.579340000000     0.949010000000     0.630090000000    -0.00998503 
C732     C      0.622930000000     0.951230000000     0.623150000000    -0.0114882  
C733     C      0.385720000000     0.876800000000     0.810890000000    -0.0256041  
C734     C      0.404890000000     0.853280000000     0.852110000000    -0.0162768  
C735     C      0.397110000000     0.841620000000     0.796160000000    -0.0202738  
C736     C      0.416660000000     0.818540000000     0.837260000000    -0.0220904  
C737     C      0.556120000000     0.933100000000     0.752820000000    -0.0114361  
C738     C      0.526090000000     0.990090000000     0.748780000000    -0.0115144  
C739     C      0.573770000000     0.964130000000     0.763150000000    -0.00870779 
C740     C      0.544660000000     0.019750000000     0.758930000000    -0.00957693 
C741     C      0.684280000000     0.972150000000     0.086240000000    -0.0206059  
C742     C      0.704210000000     0.025870000000     0.059630000000    -0.0218887  
C743     C      0.680970000000     0.002570000000     0.108410000000    -0.0205231  
C744     C      0.700890000000     0.056320000000     0.081770000000    -0.0172951  
C745     C      0.592810000000     0.662980000000     0.080730000000    -0.00914327 
C746     C      0.635860000000     0.671280000000     0.073930000000    -0.00875449 
C747     C      0.595730000000     0.617200000000     0.083720000000    -0.0104503  
C748     C      0.639540000000     0.625480000000     0.076340000000    -0.0128746  
C749     C      0.598900000000     0.888980000000     0.079390000000    -0.0100387  
C750     C      0.624160000000     0.923500000000     0.113560000000    -0.0122384  
C751     C      0.584470000000     0.869730000000     0.101210000000    -0.0117803  
C752     C      0.609370000000     0.903260000000     0.134730000000    -0.010715   
C753     C      0.391250000000     0.669550000000     0.840400000000    -0.0257451  
C754     C      0.419210000000     0.613930000000     0.852030000000    -0.0199062  
C755     C      0.403800000000     0.675420000000     0.814370000000    -0.0125546  
C756     C      0.431740000000     0.619210000000     0.825900000000    -0.016453   
C757     C      0.448330000000     0.001810000000     0.840910000000    -0.0103172  
C758     C      0.477190000000     0.961650000000     0.868980000000    -0.00889727 
C759     C      0.435720000000     0.961910000000     0.834690000000    -0.00975365 
C760     C      0.463060000000     0.923560000000     0.863000000000    -0.0106145  
C761     C      0.466390000000     0.734220000000     0.814710000000    -0.0105276  
C762     C      0.510140000000     0.742580000000     0.816150000000    -0.0109754  
C763     C      0.465810000000     0.729410000000     0.844170000000    -0.00870329 
C764     C      0.509860000000     0.734690000000     0.845600000000    -0.0111168  
C765     C      0.541460000000     0.510650000000     0.941810000000    -0.0105739  
C766     C      0.552190000000     0.084280000000     0.953130000000    -0.0107261  
C767     C      0.548840000000     0.512550000000     0.970390000000    -0.0104636  
C768     C      0.564740000000     0.093930000000     0.978730000000    -0.0107435  
H1       H      0.293830000000     0.340240000000     0.207200000000     0.0429409  
H2       H      0.314130000000     0.267280000000     0.207460000000     0.0432374  
H3       H      0.320580000000     0.246270000000     0.252120000000     0.0489689  
H4       H      0.262790000000     0.342130000000     0.213330000000     0.0500332  
H5       H      0.287090000000     0.363260000000     0.251520000000     0.0488635  
H6       H      0.268470000000     0.320450000000     0.258170000000     0.0429986  
H7       H      0.295590000000     0.224490000000     0.214330000000     0.0503543  
H8       H      0.289630000000     0.246900000000     0.258810000000     0.0428974  
H9       H      0.352300000000     0.195780000000     0.343340000000     0.0406855  
H10      H      0.395340000000     0.218330000000     0.358650000000     0.0394878  
H11      H      0.392320000000     0.286530000000     0.375960000000     0.0485779  
H12      H      0.332860000000     0.176090000000     0.367770000000     0.0498993  
H13      H      0.322450000000     0.246600000000     0.355980000000     0.0509636  
H14      H      0.331770000000     0.243100000000     0.389310000000     0.0430545  
H15      H      0.401460000000     0.215890000000     0.392900000000     0.0473794  
H16      H      0.373190000000     0.269670000000     0.401610000000     0.0435345  
H17      H      0.375550000000     0.487550000000     0.343500000000     0.041656   
H18      H      0.340320000000     0.443910000000     0.380370000000     0.0451299  
H19      H      0.314750000000     0.497860000000     0.392980000000     0.0499093  
H20      H      0.362270000000     0.491520000000     0.312070000000     0.0457276  
H21      H      0.360410000000     0.556130000000     0.338160000000     0.0449752  
H22      H      0.332330000000     0.537110000000     0.327940000000     0.0396376  
H23      H      0.313830000000     0.435750000000     0.362690000000     0.0484935  
H24      H      0.305200000000     0.506230000000     0.360090000000     0.0403075  
H25      H      0.300120000000     0.124260000000     0.527970000000     0.0406212  
H26      H      0.325620000000     0.187720000000     0.530230000000     0.0413363  
H27      H      0.343270000000     0.201590000000     0.488470000000     0.0494419  
H28      H      0.270920000000     0.127960000000     0.514910000000     0.0485635  
H29      H      0.300200000000     0.095480000000     0.484710000000     0.0497453  
H30      H      0.286100000000     0.139480000000     0.471330000000     0.0442111  
H31      H      0.314040000000     0.234980000000     0.518350000000     0.0503116  
H32      H      0.315240000000     0.211020000000     0.473780000000     0.0435934  
H33      H      0.204770000000     0.083540000000     0.128460000000     0.0392051  
H34      H      0.251960000000     0.086720000000     0.127350000000     0.0426699  
H35      H      0.264060000000     0.085440000000     0.082060000000     0.0502151  
H36      H      0.189250000000     0.130210000000     0.123480000000     0.048482   
H37      H      0.188450000000     0.086470000000     0.084090000000     0.0436973  
H38      H      0.203250000000     0.133630000000     0.078310000000     0.036462   
H39      H      0.264790000000     0.135040000000     0.119700000000     0.0497643  
H40      H      0.249430000000     0.132740000000     0.075680000000     0.0412983  
H41      H      0.200880000000     0.331030000000     0.075540000000     0.0440648  
H42      H      0.246900000000     0.337970000000     0.077660000000     0.043425   
H43      H      0.259890000000     0.402070000000     0.098250000000     0.0509816  
H44      H      0.185390000000     0.323390000000     0.105550000000     0.0516589  
H45      H      0.184840000000     0.395630000000     0.088210000000     0.0482791  
H46      H      0.195760000000     0.390570000000     0.120830000000     0.0446993  
H47      H      0.261060000000     0.328900000000     0.108380000000     0.0502777  
H48      H      0.242560000000     0.390720000000     0.126550000000     0.0442138  
H49      H      0.301090000000     0.395530000000     0.997940000000     0.0434195  
H50      H      0.315910000000     0.470830000000     0.990100000000     0.044267   
H51      H      0.314970000000     0.485750000000     0.943680000000     0.0502862  
H52      H      0.269970000000     0.386660000000     0.997250000000     0.0497458  
H53      H      0.290330000000     0.363850000000     0.956720000000     0.0484491  
H54      H      0.268450000000     0.402080000000     0.950790000000     0.0416885  
H55      H      0.293960000000     0.508900000000     0.983960000000     0.0506373  
H56      H      0.283780000000     0.477700000000     0.942510000000     0.0420727  
H57      H      0.204090000000     0.107580000000     0.570770000000     0.0441064  
H58      H      0.246030000000     0.134430000000     0.596830000000     0.0445053  
H59      H      0.238480000000     0.201320000000     0.616460000000     0.0486157  
H60      H      0.181030000000     0.094060000000     0.592860000000     0.0508262  
H61      H      0.177530000000     0.164870000000     0.573180000000     0.0459108  
H62      H      0.177110000000     0.162900000000     0.608130000000     0.0396061  
H63      H      0.244340000000     0.130330000000     0.631590000000     0.0491774  
H64      H      0.213230000000     0.181540000000     0.633300000000     0.0411781  
H65      H      0.199070000000     0.409130000000     0.556400000000     0.0392198  
H66      H      0.245290000000     0.417180000000     0.558260000000     0.040997   
H67      H      0.255620000000     0.425690000000     0.603540000000     0.0494421  
H68      H      0.187060000000     0.359260000000     0.561080000000     0.050109   
H69      H      0.181420000000     0.401570000000     0.600060000000     0.0451885  
H70      H      0.200400000000     0.359570000000     0.606800000000     0.0408332  
H71      H      0.262110000000     0.373480000000     0.567650000000     0.0498332  
H72      H      0.246200000000     0.375140000000     0.611300000000     0.0422336  
H73      H      0.371970000000     0.232750000000     0.862480000000     0.038056   
H74      H      0.339660000000     0.270330000000     0.826500000000     0.0387723  
H75      H      0.305750000000     0.226100000000     0.823090000000     0.0496275  
H76      H      0.363090000000     0.238170000000     0.895650000000     0.0483555  
H77      H      0.353900000000     0.169730000000     0.876450000000     0.0513618  
H78      H      0.328780000000     0.196270000000     0.889070000000     0.0415142  
H79      H      0.315370000000     0.294340000000     0.842440000000     0.0502482  
H80      H      0.300220000000     0.229810000000     0.857420000000     0.0416165  
H81      H      0.403780000000     0.491800000000     0.818860000000     0.0355432  
H82      H      0.376350000000     0.450820000000     0.791560000000     0.0434941  
H83      H      0.342310000000     0.428160000000     0.816020000000     0.0534695  
H84      H      0.397390000000     0.544230000000     0.825380000000     0.0462246  
H85      H      0.389830000000     0.497150000000     0.863140000000     0.0503653  
H86      H      0.364530000000     0.525710000000     0.853220000000     0.0474719  
H87      H      0.350440000000     0.474070000000     0.778120000000     0.0493928  
H88      H      0.332660000000     0.479370000000     0.821190000000     0.0437302  
H89      H      0.264510000000     0.032540000000     0.759330000000     0.0428523  
H90      H      0.298680000000     0.523400000000     0.698060000000     0.0437321  
H91      H      0.283430000000     0.551690000000     0.657860000000     0.0500777  
H92      H      0.266130000000     0.086460000000     0.763940000000     0.0503158  
H93      H      0.237400000000     0.064440000000     0.729550000000     0.0489083  
H94      H      0.259430000000     0.099180000000     0.718270000000     0.0431892  
H95      H      0.316990000000     0.564910000000     0.688020000000     0.0504168  
H96      H      0.283380000000     0.602050000000     0.671230000000     0.0422974  
H97      H      0.828980000000     0.122960000000     0.203780000000     0.0417039  
H98      H      0.800130000000     0.180580000000     0.217880000000     0.0418285  
H99      H      0.762330000000     0.151510000000     0.230070000000     0.0497324  
H100     H      0.802760000000     0.594200000000     0.240840000000     0.0488245  
H101     H      0.772890000000     0.546420000000     0.222410000000     0.0486297  
H102     H      0.772290000000     0.548400000000     0.257340000000     0.0418641  
H103     H      0.795420000000     0.188500000000     0.252060000000     0.0505919  
H104     H      0.738790000000     0.588200000000     0.279860000000     0.0424867  
H105     H      0.760670000000     0.164730000000     0.071590000000     0.0401765  
H106     H      0.715730000000     0.159750000000     0.066130000000     0.0378456  
H107     H      0.697900000000     0.153780000000     0.108550000000     0.045844   
H108     H      0.773510000000     0.213330000000     0.078600000000     0.0483641  
H109     H      0.772570000000     0.167970000000     0.117250000000     0.0493587  
H110     H      0.755600000000     0.213280000000     0.122040000000     0.0428972  
H111     H      0.698290000000     0.204400000000     0.071550000000     0.0473239  
H112     H      0.707290000000     0.203780000000     0.117730000000     0.0445171  
H113     H      0.774390000000     0.433570000000     0.124250000000     0.0399495  
H114     H      0.748860000000     0.388610000000     0.150720000000     0.0397653  
H115     H      0.711540000000     0.418970000000     0.161470000000     0.0482278  
H116     H      0.769020000000     0.439490000000     0.090010000000     0.0483504  
H117     H      0.755810000000     0.498040000000     0.119090000000     0.0466968  
H118     H      0.734050000000     0.478240000000     0.097710000000     0.0443322  
H119     H      0.726180000000     0.359190000000     0.135420000000     0.0438772  
H120     H      0.702420000000     0.419450000000     0.128210000000     0.0445364  
H121     H      0.812100000000     0.256350000000     0.011160000000     0.0441337  
H122     H      0.776810000000     0.225790000000     0.980130000000     0.0419342  
H123     H      0.754650000000     0.282980000000     0.962230000000     0.0483172  
H124     H      0.837230000000     0.276070000000     0.994230000000     0.0512854  
H125     H      0.810160000000     0.330690000000     0.010150000000     0.0506222  
H126     H      0.813660000000     0.330720000000     0.975400000000     0.0420126  
H127     H      0.781940000000     0.228770000000     0.945750000000     0.0483408  
H128     H      0.780680000000     0.302750000000     0.947000000000     0.0406773  
H129     H      0.806720000000     0.276530000000     0.380050000000     0.0404337  
H130     H      0.836770000000     0.241730000000     0.409070000000     0.0407867  
H131     H      0.873190000000     0.226730000000     0.386160000000     0.0577306  
H132     H      0.810240000000     0.329400000000     0.372510000000     0.0520517  
H133     H      0.821710000000     0.281200000000     0.336340000000     0.0501398  
H134     H      0.844460000000     0.315470000000     0.345790000000     0.0461267  
H135     H      0.860280000000     0.271220000000     0.422860000000     0.0501142  
H136     H      0.878390000000     0.279540000000     0.380130000000     0.0455942  
H137     H      0.806450000000     0.541940000000     0.381500000000     0.0413991  
H138     H      0.845290000000     0.576120000000     0.400670000000     0.044558   
H139     H      0.878710000000     0.531040000000     0.393050000000     0.0481911  
H140     H      0.802070000000     0.544990000000     0.346930000000     0.048485   
H141     H      0.816160000000     0.476690000000     0.361110000000     0.0499105  
H142     H      0.836150000000     0.501440000000     0.339180000000     0.0378447  
H143     H      0.864910000000     0.599620000000     0.377890000000     0.0501467  
H144     H      0.874210000000     0.533950000000     0.358440000000     0.0385385  
H145     H      0.812160000000     0.482560000000     0.525960000000     0.0431226  
H146     H      0.780160000000     0.428500000000     0.512810000000     0.042457   
H147     H      0.746310000000     0.461750000000     0.492310000000     0.0492938  
H148     H      0.830200000000     0.503350000000     0.500620000000     0.0495472  
H149     H      0.797990000000     0.550410000000     0.515270000000     0.0503803  
H150     H      0.796370000000     0.537690000000     0.481360000000     0.0414113  
H151     H      0.778340000000     0.414160000000     0.479120000000     0.0483659  
H152     H      0.764810000000     0.482390000000     0.467270000000     0.0409831  
H153     H      0.742350000000     0.457020000000     0.652600000000     0.0439491  
H154     H      0.696240000000     0.451370000000     0.645330000000     0.0461998  
H155     H      0.687160000000     0.444840000000     0.598970000000     0.0444611  
H156     H      0.759330000000     0.411380000000     0.649280000000     0.0504306  
H157     H      0.761660000000     0.457590000000     0.610450000000     0.0490259  
H158     H      0.750810000000     0.407740000000     0.603040000000     0.0410034  
H159     H      0.684380000000     0.401960000000     0.638910000000     0.0466945  
H160     H      0.704600000000     0.399640000000     0.596700000000     0.0366499  
H161     H      0.710600000000     0.160940000000     0.642410000000     0.039616   
H162     H      0.735340000000     0.216210000000     0.601700000000     0.0464335  
H163     H      0.767990000000     0.243040000000     0.625530000000     0.0477285  
H164     H      0.726270000000     0.113960000000     0.643950000000     0.0476413  
H165     H      0.735480000000     0.162950000000     0.680440000000     0.0494828  
H166     H      0.760610000000     0.146550000000     0.661990000000     0.0403769  
H167     H      0.760630000000     0.189980000000     0.590060000000     0.0505612  
H168     H      0.779880000000     0.193320000000     0.631230000000     0.0399145  
H169     H      0.870860000000     0.509460000000     0.895000000000     0.0435252  
H170     H      0.888360000000     0.552130000000     0.853330000000     0.0453699  
H171     H      0.858300000000     0.556880000000     0.819310000000     0.0505919  
H172     H      0.850010000000     0.536250000000     0.914790000000     0.0506319  
H173     H      0.831550000000     0.486650000000     0.883390000000     0.0500428  
H174     H      0.821570000000     0.538050000000     0.879590000000     0.0416789  
H175     H      0.878170000000     0.603570000000     0.850310000000     0.0512438  
H176     H      0.838230000000     0.580580000000     0.841610000000     0.0414105  
H177     H      0.917410000000     0.336880000000     0.874040000000     0.0445384  
H178     H      0.915210000000     0.289740000000     0.837180000000     0.0330747  
H179     H      0.887300000000     0.237160000000     0.845230000000     0.0441181  
H180     H      0.896760000000     0.377870000000     0.876950000000     0.050598   
H181     H      0.890420000000     0.318870000000     0.908040000000     0.0487835  
H182     H      0.865390000000     0.331980000000     0.888700000000     0.0440487  
H183     H      0.892750000000     0.295110000000     0.812930000000     0.0475074  
H184     H      0.862850000000     0.270980000000     0.842330000000     0.044855   
H185     H      0.749990000000     0.371440000000     0.804830000000     0.0406771  
H186     H      0.769880000000     0.304640000000     0.804710000000     0.0400322  
H187     H      0.773820000000     0.277530000000     0.761340000000     0.0480573  
H188     H      0.766170000000     0.416770000000     0.797190000000     0.0490039  
H189     H      0.739080000000     0.391440000000     0.761490000000     0.0505464  
H190     H      0.769080000000     0.397830000000     0.751850000000     0.0468082  
H191     H      0.800750000000     0.301150000000     0.797510000000     0.0481458  
H192     H      0.793910000000     0.316790000000     0.752010000000     0.0446114  
H193     H      0.156590000000     0.254400000000     0.616360000000     0.056253   
H194     H      0.149060000000     0.239010000000     0.564190000000     0.0438711  
H195     H      0.122510000000     0.291480000000     0.548800000000     0.0429679  
H196     H      0.178330000000     0.293230000000     0.622030000000     0.0411892  
H197     H      0.134820000000     0.315890000000     0.627430000000     0.0168911  
H198     H      0.152340000000     0.346240000000     0.605810000000     0.0320517  
H199     H      0.166430000000     0.270590000000     0.543100000000     0.0486399  
H200     H      0.144030000000     0.330820000000     0.554100000000     0.045321   
H201     H      0.863750000000     0.121610000000     0.826130000000     0.0406822  
H202     H      0.882160000000     0.064480000000     0.859570000000     0.0416091  
H203     H      0.924040000000     0.063810000000     0.851530000000     0.0388691  
H204     H      0.866110000000     0.172760000000     0.838160000000     0.0504377  
H205     H      0.896010000000     0.152450000000     0.802420000000     0.046758   
H206     H      0.908680000000     0.173130000000     0.831740000000     0.0524355  
H207     H      0.895160000000     0.086480000000     0.888310000000     0.0368691  
H208     H      0.927730000000     0.114590000000     0.863980000000     0.0516472  
H209     H      0.018960000000     0.239910000000     0.731400000000     0.0407115  
H210     H      0.054510000000     0.208920000000     0.758960000000     0.0419543  
H211     H      0.051930000000     0.134770000000     0.758370000000     0.0499736  
H212     H      0.021730000000     0.239190000000     0.696610000000     0.0479168  
H213     H      0.995040000000     0.184720000000     0.713270000000     0.0484995  
H214     H      0.020100000000     0.164880000000     0.696280000000     0.0421083  
H215     H      0.078950000000     0.188680000000     0.741040000000     0.0499989  
H216     H      0.054420000000     0.134140000000     0.723500000000     0.0436516  
H217     H      0.858990000000     0.384420000000     0.315680000000     0.0407337  
H218     H      0.884850000000     0.343140000000     0.351920000000     0.0410806  
H219     H      0.919770000000     0.382460000000     0.360820000000     0.0422428  
H220     H      0.842150000000     0.425740000000     0.329110000000     0.0408478  
H221     H      0.880840000000     0.445540000000     0.305060000000     0.0438403  
H222     H      0.877390000000     0.465590000000     0.337420000000     0.0469007  
H223     H      0.881490000000     0.362090000000     0.384500000000     0.0295809  
H224     H      0.903070000000     0.423940000000     0.374360000000     0.0577053  
H225     H      0.169290000000     0.507430000000     0.055480000000     0.0488808  
H226     H      0.151040000000     0.431430000000     0.065130000000     0.0541315  
H227     H      0.151820000000     0.421390000000     0.112340000000     0.0368574  
H228     H      0.148820000000     0.548000000000     0.061430000000     0.036741   
H229     H      0.180470000000     0.535450000000     0.097270000000     0.0420593  
H230     H      0.150420000000     0.537600000000     0.108220000000     0.0441043  
H231     H      0.120840000000     0.432910000000     0.075730000000     0.0419136  
H232     H      0.131550000000     0.462360000000     0.117280000000     0.0446578  
H233     H      0.045340000000     0.419040000000     0.242930000000     0.041618   
H234     H      0.013550000000     0.462770000000     0.214460000000     0.0417537  
H235     H      0.996080000000     0.514900000000     0.242080000000     0.0495191  
H236     H      0.072980000000     0.443560000000     0.249010000000     0.0499016  
H237     H      0.045410000000     0.445140000000     0.287190000000     0.0503102  
H238     H      0.054340000000     0.494550000000     0.276170000000     0.0436408  
H239     H      0.023160000000     0.511960000000     0.203870000000     0.0504557  
H240     H      0.024440000000     0.536690000000     0.248440000000     0.0430221  
H241     H      0.165930000000     0.228280000000     0.146100000000     0.0482691  
H242     H      0.183360000000     0.198940000000     0.099630000000     0.0468428  
H243     H      0.156600000000     0.145570000000     0.085590000000     0.0286175  
H244     H      0.142200000000     0.263920000000     0.141980000000     0.0412864  
H245     H      0.130270000000     0.190810000000     0.155780000000     0.0399435  
H246     H      0.115550000000     0.210840000000     0.127490000000     0.0519775  
H247     H      0.168340000000     0.218900000000     0.071630000000     0.0477889  
H248     H      0.132750000000     0.180900000000     0.081550000000     0.0270137  
H249     H      0.036260000000     0.110240000000     0.089510000000     0.0414244  
H250     H      0.048570000000     0.152640000000     0.128460000000     0.0399996  
H251     H      0.080350000000     0.121010000000     0.152490000000     0.0482289  
H252     H      0.053850000000     0.111620000000     0.060450000000     0.049821   
H253     H      0.059170000000     0.048450000000     0.087560000000     0.050128   
H254     H      0.085820000000     0.076050000000     0.081860000000     0.0445666  
H255     H      0.074160000000     0.184290000000     0.126120000000     0.0448345  
H256     H      0.099830000000     0.124880000000     0.125190000000     0.0465221  
H257     H      0.085190000000     0.392300000000     0.080230000000     0.0407528  
H258     H      0.128510000000     0.366740000000     0.097450000000     0.0359176  
H259     H      0.126830000000     0.365120000000     0.144630000000     0.0494505  
H260     H      0.062830000000     0.354030000000     0.078910000000     0.0492958  
H261     H      0.058240000000     0.399810000000     0.117040000000     0.0491197  
H262     H      0.062800000000     0.347820000000     0.126230000000     0.0413005  
H263     H      0.130160000000     0.315050000000     0.107620000000     0.0523678  
H264     H      0.104220000000     0.327060000000     0.144090000000     0.0413437  
H265     H      0.935430000000     0.355670000000     0.817460000000     0.0434298  
H266     H      0.930460000000     0.417620000000     0.852810000000     0.0561328  
H267     H      0.965970000000     0.458770000000     0.850610000000     0.0277977  
H268     H      0.929610000000     0.370810000000     0.784410000000     0.0441268  
H269     H      0.973750000000     0.363730000000     0.797440000000     0.0400499  
H270     H      0.965390000000     0.411050000000     0.782430000000     0.0441493  
H271     H      0.921800000000     0.465100000000     0.838190000000     0.039211   
H272     H      0.959880000000     0.473370000000     0.817480000000     0.0351213  
H273     H      0.008870000000     0.234720000000     0.870170000000     0.0417879  
H274     H      0.962680000000     0.244390000000     0.872030000000     0.0429285  
H275     H      0.953130000000     0.310870000000     0.854420000000     0.0461112  
H276     H      0.021570000000     0.219560000000     0.839700000000     0.0492779  
H277     H      0.027900000000     0.292770000000     0.849010000000     0.0497651  
H278     H      0.010840000000     0.284830000000     0.820050000000     0.0409308  
H279     H      0.946570000000     0.237470000000     0.842330000000     0.0465392  
H280     H      0.964760000000     0.297210000000     0.823150000000     0.0367755  
H281     H      0.997430000000     0.506330000000     0.816460000000     0.038915   
H282     H      0.010920000000     0.561040000000     0.862820000000     0.0462878  
H283     H      0.043930000000     0.526630000000     0.881830000000     0.0503266  
H284     H      0.017260000000     0.516110000000     0.790200000000     0.0477265  
H285     H      0.026610000000     0.452790000000     0.815930000000     0.0507441  
H286     H      0.050180000000     0.489010000000     0.813980000000     0.0407077  
H287     H      0.036350000000     0.589620000000     0.853970000000     0.0511718  
H288     H      0.060740000000     0.530550000000     0.852310000000     0.0411175  
H289     H      0.029990000000     0.262560000000     0.959380000000     0.0408746  
H290     H      0.069990000000     0.291490000000     0.941810000000     0.0417181  
H291     H      0.070240000000     0.365700000000     0.943710000000     0.0501107  
H292     H      0.025540000000     0.261900000000     0.993960000000     0.0494247  
H293     H      0.004180000000     0.318630000000     0.971340000000     0.0485239  
H294     H      0.024670000000     0.335900000000     0.995480000000     0.0436444  
H295     H      0.091380000000     0.308250000000     0.965150000000     0.0496131  
H296     H      0.065920000000     0.364640000000     0.978310000000     0.0437492  
H297     H      0.937970000000     0.263360000000     0.368360000000     0.0342169  
H298     H      0.935000000000     0.324130000000     0.331940000000     0.0404374  
H299     H      0.951490000000     0.298520000000     0.291610000000     0.0508874  
H300     H      0.915470000000     0.225230000000     0.364840000000     0.0518092  
H301     H      0.957180000000     0.206820000000     0.347220000000     0.0388636  
H302     H      0.932770000000     0.198600000000     0.325610000000     0.0409214  
H303     H      0.910490000000     0.318460000000     0.310020000000     0.041498   
H304     H      0.928660000000     0.260960000000     0.288330000000     0.0502398  
H305     H      0.977400000000     0.295310000000     0.349320000000     0.0486312  
H306     H      0.945440000000     0.337120000000     0.386170000000     0.0390291  
H307     H      0.962090000000     0.327180000000     0.429140000000     0.0490003  
H308     H      0.003780000000     0.323800000000     0.344350000000     0.05112    
H309     H      0.007780000000     0.265190000000     0.375950000000     0.049413   
H310     H      0.016060000000     0.313890000000     0.388770000000     0.0407087  
H311     H      0.957740000000     0.384330000000     0.396840000000     0.0492345  
H312     H      0.989400000000     0.350160000000     0.419420000000     0.04121    
H313     H      0.978600000000     0.565850000000     0.383260000000     0.0445611  
H314     H      0.933050000000     0.536600000000     0.392730000000     0.0464094  
H315     H      0.906200000000     0.592510000000     0.385140000000     0.0469763  
H316     H      0.986330000000     0.569020000000     0.349450000000     0.0490151  
H317     H      0.975690000000     0.636410000000     0.368530000000     0.0491776  
H318     H      0.956970000000     0.621650000000     0.342010000000     0.0392852  
H319     H      0.916450000000     0.525600000000     0.364000000000     0.0490151  
H320     H      0.915350000000     0.596760000000     0.351790000000     0.0417842  
H321     H      0.171830000000     0.463770000000     0.576090000000     0.0504487  
H322     H      0.147270000000     0.427780000000     0.617300000000     0.0482848  
H323     H      0.119270000000     0.477160000000     0.633410000000     0.0411683  
H324     H      0.155030000000     0.464880000000     0.546520000000     0.0428497  
H325     H      0.157030000000     0.532280000000     0.573290000000     0.0427912  
H326     H      0.128410000000     0.515280000000     0.563450000000     0.0447713  
H327     H      0.118870000000     0.409320000000     0.607630000000     0.0386987  
H328     H      0.103640000000     0.477850000000     0.602900000000     0.0396731  
H329     H      0.141320000000     0.133400000000     0.587860000000     0.0365225  
H330     H      0.127060000000     0.089690000000     0.624140000000     0.04597    
H331     H      0.095980000000     0.122000000000     0.648760000000     0.0492153  
H332     H      0.125000000000     0.136860000000     0.558050000000     0.0487143  
H333     H      0.121260000000     0.197940000000     0.587590000000     0.0484382  
H334     H      0.093780000000     0.174570000000     0.579520000000     0.0460404  
H335     H      0.100510000000     0.060700000000     0.620170000000     0.0484062  
H336     H      0.076700000000     0.122140000000     0.621170000000     0.0435286  
H337     H      0.034240000000     0.362820000000     0.590190000000     0.0406685  
H338     H      0.031130000000     0.405330000000     0.631070000000     0.041149   
H339     H      0.064660000000     0.393700000000     0.658850000000     0.0484005  
H340     H      0.052000000000     0.380510000000     0.563610000000     0.049522   
H341     H      0.070270000000     0.323730000000     0.589160000000     0.05243    
H342     H      0.087880000000     0.368710000000     0.588240000000     0.0458157  
H343     H      0.047320000000     0.452050000000     0.633280000000     0.0498713  
H344     H      0.084380000000     0.416000000000     0.635830000000     0.0378102  
H345     H      0.017410000000     0.640140000000     0.501100000000     0.0440794  
H346     H      0.002530000000     0.069570000000     0.468730000000     0.0453488  
H347     H      0.995250000000     0.032970000000     0.508910000000     0.0489697  
H348     H      0.996750000000     0.677520000000     0.512110000000     0.0493579  
H349     H      0.017340000000     0.640700000000     0.548540000000     0.0478636  
H350     H      0.985860000000     0.636160000000     0.549290000000     0.0411103  
H351     H      0.971530000000     0.070140000000     0.474910000000     0.0494921  
H352     H      0.977470000000     0.073690000000     0.521350000000     0.0413103  
H353     H      0.629590000000     0.311360000000     0.087950000000     0.0371416  
H354     H      0.658530000000     0.331910000000     0.128070000000     0.0382482  
H355     H      0.685960000000     0.276200000000     0.133740000000     0.0530752  
H356     H      0.642080000000     0.320720000000     0.056220000000     0.0443378  
H357     H      0.641960000000     0.245630000000     0.071710000000     0.0400093  
H358     H      0.669880000000     0.265160000000     0.061110000000     0.0639153  
H359     H      0.686590000000     0.351400000000     0.117840000000     0.0408754  
H360     H      0.699390000000     0.285190000000     0.102680000000     0.0519951  
H361     H      0.384080000000     0.087930000000     0.310970000000     0.0426281  
H362     H      0.417100000000     0.073110000000     0.348720000000     0.0409066  
H363     H      0.445330000000     0.127890000000     0.347910000000     0.0317251  
H364     H      0.362420000000     0.125050000000     0.320480000000     0.0394927  
H365     H      0.395760000000     0.150330000000     0.289580000000     0.0469364  
H366     H      0.390780000000     0.179990000000     0.318460000000     0.0436181  
H367     H      0.412530000000     0.101830000000     0.378190000000     0.0458332  
H368     H      0.423680000000     0.164780000000     0.357290000000     0.0410778  
H369     H      0.582390000000     0.181380000000     0.269070000000     0.04241    
H370     H      0.564110000000     0.252260000000     0.276070000000     0.0421263  
H371     H      0.556100000000     0.285390000000     0.234770000000     0.0490892  
H372     H      0.563380000000     0.140080000000     0.260150000000     0.0500529  
H373     H      0.587060000000     0.167940000000     0.222940000000     0.0487381  
H374     H      0.555910000000     0.170220000000     0.217720000000     0.0427895  
H375     H      0.532900000000     0.258100000000     0.272310000000     0.0485177  
H376     H      0.535830000000     0.246200000000     0.225560000000     0.0423314  
H377     H      0.714080000000     0.285680000000     0.611650000000     0.0410374  
H378     H      0.692400000000     0.211680000000     0.615460000000     0.0401092  
H379     H      0.651420000000     0.224820000000     0.624970000000     0.0346307  
H380     H      0.710230000000     0.309640000000     0.580380000000     0.0408455  
H381     H      0.684180000000     0.337630000000     0.617660000000     0.0467167  
H382     H      0.668870000000     0.322300000000     0.588600000000     0.0574723  
H383     H      0.676740000000     0.197070000000     0.586430000000     0.0360705  
H384     H      0.646660000000     0.247990000000     0.593740000000     0.0304859  
H385     H      0.417330000000     0.374690000000     0.368630000000     0.0540013  
H386     H      0.400010000000     0.412340000000     0.412430000000     0.0501268  
H387     H      0.414900000000     0.481650000000     0.412240000000     0.0396313  
H388     H      0.401400000000     0.387520000000     0.339460000000     0.0337833  
H389     H      0.441440000000     0.424220000000     0.346030000000     0.0498112  
H390     H      0.416470000000     0.456160000000     0.339230000000     0.0383269  
H391     H      0.375040000000     0.444340000000     0.406130000000     0.0424629  
H392     H      0.398720000000     0.493920000000     0.383240000000     0.039844   
H393     H      0.507070000000     0.267610000000     0.365150000000     0.0440897  
H394     H      0.470390000000     0.302950000000     0.335810000000     0.0447163  
H395     H      0.440260000000     0.251140000000     0.332350000000     0.0537142  
H396     H      0.502380000000     0.268620000000     0.399690000000     0.0487836  
H397     H      0.494460000000     0.200560000000     0.380860000000     0.0494183  
H398     H      0.468850000000     0.222610000000     0.395710000000     0.0414236  
H399     H      0.445800000000     0.319140000000     0.354930000000     0.0493261  
H400     H      0.436310000000     0.250360000000     0.367010000000     0.0370228  
H401     H      0.544000000000     0.526040000000     0.356960000000     0.0407401  
H402     H      0.519300000000     0.493610000000     0.321570000000     0.0403106  
H403     H      0.482810000000     0.466690000000     0.338580000000     0.0464633  
H404     H      0.536710000000     0.576080000000     0.368220000000     0.0482782  
H405     H      0.524930000000     0.519090000000     0.398530000000     0.0486988  
H406     H      0.501290000000     0.551680000000     0.389100000000     0.0394316  
H407     H      0.495270000000     0.521650000000     0.307690000000     0.0498334  
H408     H      0.472810000000     0.516170000000     0.347700000000     0.0442453  
H409     H      0.524250000000     0.367240000000     0.517000000000     0.0437327  
H410     H      0.560190000000     0.387560000000     0.486380000000     0.0432717  
H411     H      0.582250000000     0.326360000000     0.474980000000     0.0496936  
H412     H      0.498760000000     0.345780000000     0.501650000000     0.0499793  
H413     H      0.523650000000     0.293560000000     0.523730000000     0.0509792  
H414     H      0.521060000000     0.285080000000     0.489330000000     0.043361   
H415     H      0.557030000000     0.377850000000     0.452190000000     0.050304   
H416     H      0.556790000000     0.304630000000     0.459730000000     0.0433344  
H417     H      0.672070000000     0.552480000000     0.600320000000     0.0520764  
H418     H      0.677720000000     0.634440000000     0.590910000000     0.0368289  
H419     H      0.646230000000     0.654820000000     0.562120000000     0.0400393  
H420     H      0.650200000000     0.541800000000     0.624680000000     0.0444834  
H421     H      0.637460000000     0.531040000000     0.576510000000     0.0487664  
H422     H      0.618320000000     0.562320000000     0.596090000000     0.0428359  
H423     H      0.658580000000     0.665650000000     0.610470000000     0.0320325  
H424     H      0.624040000000     0.644660000000     0.586200000000     0.0436784  
H425     H      0.545210000000     0.195540000000     0.638180000000     0.040456   
H426     H      0.573050000000     0.236010000000     0.664640000000     0.0402742  
H427     H      0.605670000000     0.195790000000     0.679400000000     0.0480401  
H428     H      0.551150000000     0.186150000000     0.604360000000     0.0505738  
H429     H      0.557990000000     0.126440000000     0.634800000000     0.0490331  
H430     H      0.582400000000     0.139680000000     0.614660000000     0.043133   
H431     H      0.599150000000     0.256720000000     0.650080000000     0.0506521  
H432     H      0.617130000000     0.190610000000     0.647210000000     0.0370561  
H433     H      0.626070000000     0.388930000000     0.626110000000     0.0477011  
H434     H      0.578580000000     0.417100000000     0.604180000000     0.0447272  
H435     H      0.584240000000     0.487480000000     0.591170000000     0.0478163  
H436     H      0.646320000000     0.383390000000     0.599770000000     0.0441072  
H437     H      0.649330000000     0.449910000000     0.625320000000     0.0455975  
H438     H      0.646400000000     0.454440000000     0.590570000000     0.0405108  
H439     H      0.580430000000     0.419390000000     0.569410000000     0.0472798  
H440     H      0.608790000000     0.473790000000     0.570960000000     0.0389547  
H441     H      0.414080000000     0.390090000000     0.816770000000     0.0582875  
H442     H      0.386970000000     0.343830000000     0.784370000000     0.0509641  
H443     H      0.395260000000     0.273490000000     0.795050000000     0.0331325  
H444     H      0.401960000000     0.396660000000     0.848770000000     0.0410055  
H445     H      0.435700000000     0.344490000000     0.845620000000     0.0534106  
H446     H      0.408930000000     0.325800000000     0.860030000000     0.0441686  
H447     H      0.360610000000     0.324910000000     0.799560000000     0.0410561  
H448     H      0.382620000000     0.278700000000     0.827010000000     0.0375106  
H449     H      0.508010000000     0.408980000000     0.680830000000     0.0404009  
H450     H      0.539910000000     0.358720000000     0.691870000000     0.0397741  
H451     H      0.572540000000     0.393050000000     0.712560000000     0.0497043  
H452     H      0.487250000000     0.423860000000     0.705400000000     0.0492096  
H453     H      0.517270000000     0.477430000000     0.695640000000     0.0494358  
H454     H      0.517840000000     0.461200000000     0.728980000000     0.0452935  
H455     H      0.542390000000     0.339900000000     0.724560000000     0.0492813  
H456     H      0.555030000000     0.405910000000     0.740310000000     0.045297   
H457     H      0.713770000000     0.542870000000     0.083850000000     0.0454346  
H458     H      0.722360000000     0.473150000000     0.054900000000     0.0458782  
H459     H      0.695990000000     0.422460000000     0.072300000000     0.0316692  
H460     H      0.688940000000     0.571410000000     0.072100000000     0.0458501  
H461     H      0.681690000000     0.528510000000     0.113720000000     0.0334111  
H462     H      0.661270000000     0.520780000000     0.087520000000     0.0551953  
H463     H      0.701100000000     0.465260000000     0.029650000000     0.0518952  
H464     H      0.670460000000     0.448220000000     0.060010000000     0.0403374  
H465     H      0.653610000000     0.174960000000     0.093410000000     0.0396812  
H466     H      0.610700000000     0.192200000000     0.077690000000     0.0389457  
H467     H      0.583420000000     0.135810000000     0.085540000000     0.0492505  
H468     H      0.658990000000     0.174210000000     0.127840000000     0.0526318  
H469     H      0.654300000000     0.104780000000     0.107450000000     0.052524   
H470     H      0.634030000000     0.115130000000     0.133310000000     0.0462447  
H471     H      0.589340000000     0.205840000000     0.101910000000     0.0496832  
H472     H      0.590290000000     0.136450000000     0.119670000000     0.0430313  
H473     H      0.640690000000     0.401320000000     0.108390000000     0.0455427  
H474     H      0.599480000000     0.363640000000     0.084510000000     0.0405056  
H475     H      0.570620000000     0.357280000000     0.118980000000     0.0502313  
H476     H      0.637070000000     0.454740000000     0.112830000000     0.0500603  
H477     H      0.630850000000     0.414440000000     0.153620000000     0.0484549  
H478     H      0.606020000000     0.444860000000     0.144250000000     0.0411569  
H479     H      0.576590000000     0.399670000000     0.078430000000     0.0493602  
H480     H      0.570480000000     0.411190000000     0.124300000000     0.0415252  
H481     H      0.426460000000     0.133960000000     0.863260000000     0.0393453  
H482     H      0.410650000000     0.208110000000     0.845180000000     0.0393348  
H483     H      0.431390000000     0.220440000000     0.804960000000     0.0416806  
H484     H      0.411810000000     0.091440000000     0.848200000000     0.0503319  
H485     H      0.453970000000     0.107090000000     0.831300000000     0.0485346  
H486     H      0.431360000000     0.103510000000     0.806820000000     0.0529734  
H487     H      0.388590000000     0.203300000000     0.820120000000     0.0309184  
H488     H      0.416910000000     0.179010000000     0.788720000000     0.042063   
H489     H      0.489680000000     0.521180000000     0.797100000000     0.0411541  
H490     H      0.447030000000     0.514080000000     0.812610000000     0.0373806  
H491     H      0.441000000000     0.446260000000     0.829360000000     0.0443062  
H492     H      0.512130000000     0.532980000000     0.820530000000     0.0494671  
H493     H      0.513130000000     0.460740000000     0.806310000000     0.0485352  
H494     H      0.507800000000     0.465800000000     0.840600000000     0.0436628  
H495     H      0.440840000000     0.517920000000     0.846780000000     0.0431456  
H496     H      0.461100000000     0.454710000000     0.855620000000     0.0441037  
H497     H      0.497330000000     0.272250000000     0.877700000000     0.0410597  
H498     H      0.525590000000     0.235770000000     0.847080000000     0.0410437  
H499     H      0.511950000000     0.167260000000     0.842490000000     0.0487055  
H500     H      0.471570000000     0.296130000000     0.864490000000     0.047558   
H501     H      0.462310000000     0.233020000000     0.888630000000     0.0494022  
H502     H      0.454110000000     0.229680000000     0.855020000000     0.0442046  
H503     H      0.517480000000     0.229700000000     0.813530000000     0.0497418  
H504     H      0.486750000000     0.182700000000     0.824280000000     0.048762   
H505     H      0.580340000000     0.549380000000     0.920790000000     0.0419294  
H506     H      0.553160000000     0.488760000000     0.931680000000     0.0411829  
H507     H      0.538660000000     0.017140000000     0.014770000000     0.050736   
H508     H      0.551570000000     0.112560000000     0.941370000000     0.048268   
H509     H      0.593960000000     0.582060000000     0.960250000000     0.0500854  
H510     H      0.556440000000     0.121330000000     0.987350000000     0.0424716  
H511     H      0.507880000000     0.025970000000     0.980650000000     0.0508642  
H512     H      0.528190000000     0.068380000000     0.012090000000     0.0438999  
H513     H      0.275840000000     0.825520000000     0.231130000000     0.0444246  
H514     H      0.300470000000     0.751910000000     0.224730000000     0.0435805  
H515     H      0.311430000000     0.728350000000     0.267850000000     0.0481932  
H516     H      0.245920000000     0.819480000000     0.241410000000     0.0499067  
H517     H      0.272980000000     0.839740000000     0.277540000000     0.0505693  
H518     H      0.258110000000     0.792440000000     0.283190000000     0.0416942  
H519     H      0.283460000000     0.707570000000     0.232210000000     0.0500935  
H520     H      0.281170000000     0.725880000000     0.277750000000     0.041132   
H521     H      0.344200000000     0.725680000000     0.376090000000     0.0457371  
H522     H      0.380950000000     0.685130000000     0.343830000000     0.0433698  
H523     H      0.406080000000     0.740590000000     0.332380000000     0.0495325  
H524     H      0.353510000000     0.729930000000     0.409360000000     0.0503795  
H525     H      0.357320000000     0.795150000000     0.385720000000     0.0505252  
H526     H      0.385050000000     0.776370000000     0.397410000000     0.0419122  
H527     H      0.407160000000     0.677900000000     0.362440000000     0.0480753  
H528     H      0.414530000000     0.748720000000     0.365610000000     0.0347241  
H529     H      0.387550000000     0.943290000000     0.369330000000     0.0409047  
H530     H      0.340940000000     0.931740000000     0.383770000000     0.0448554  
H531     H      0.323340000000     0.997940000000     0.388500000000     0.0505161  
H532     H      0.391930000000     0.954580000000     0.335500000000     0.0457366  
H533     H      0.394910000000     0.014900000000     0.364420000000     0.0442804  
H534     H      0.372800000000     0.019630000000     0.339660000000     0.0410557  
H535     H      0.320080000000     0.938090000000     0.357940000000     0.0509372  
H536     H      0.328030000000     0.009740000000     0.354810000000     0.0427427  
H537     H      0.307280000000     0.604820000000     0.530410000000     0.0392013  
H538     H      0.335330000000     0.661100000000     0.538320000000     0.0395413  
H539     H      0.355790000000     0.677200000000     0.498920000000     0.0497813  
H540     H      0.278370000000     0.615370000000     0.518010000000     0.0484232  
H541     H      0.306070000000     0.583900000000     0.485350000000     0.0480856  
H542     H      0.294110000000     0.631700000000     0.475280000000     0.0470161  
H543     H      0.327450000000     0.712330000000     0.530050000000     0.0492084  
H544     H      0.330070000000     0.698270000000     0.484170000000     0.0486076  
H545     H      0.198650000000     0.586230000000     0.123360000000     0.0402223  
H546     H      0.245130000000     0.583680000000     0.132720000000     0.0428155  
H547     H      0.264750000000     0.588970000000     0.091020000000     0.0494627  
H548     H      0.185540000000     0.635290000000     0.119740000000     0.0482761  
H549     H      0.190450000000     0.601090000000     0.077120000000     0.0413088  
H550     H      0.207690000000     0.646550000000     0.079090000000     0.0366333  
H551     H      0.260360000000     0.631370000000     0.132010000000     0.0498935  
H552     H      0.253340000000     0.639140000000     0.085830000000     0.0411561  
H553     H      0.194700000000     0.826120000000     0.095700000000     0.045418   
H554     H      0.242600000000     0.837610000000     0.103220000000     0.0426924  
H555     H      0.250460000000     0.906060000000     0.120800000000     0.049357   
H556     H      0.177720000000     0.822870000000     0.124980000000     0.0499952  
H557     H      0.177050000000     0.891870000000     0.102710000000     0.0482002  
H558     H      0.185880000000     0.892300000000     0.136210000000     0.0421157  
H559     H      0.252270000000     0.835210000000     0.136470000000     0.0493093  
H560     H      0.230060000000     0.897170000000     0.146900000000     0.0421552  
H561     H      0.280120000000     0.844080000000     0.011760000000     0.0414361  
H562     H      0.310510000000     0.900440000000     0.023600000000     0.0419608  
H563     H      0.329320000000     0.925770000000     0.984740000000     0.0498677  
H564     H      0.251950000000     0.859630000000     0.999530000000     0.049325   
H565     H      0.279540000000     0.833190000000     0.965190000000     0.049082   
H566     H      0.269270000000     0.883860000000     0.959280000000     0.0442195  
H567     H      0.302060000000     0.952460000000     0.019030000000     0.0508928  
H568     H      0.302060000000     0.944670000000     0.972150000000     0.0437175  
H569     H      0.213340000000     0.607000000000     0.559090000000     0.0445524  
H570     H      0.215520000000     0.664350000000     0.607380000000     0.0446863  
H571     H      0.192620000000     0.721960000000     0.594410000000     0.0511792  
H572     H      0.185240000000     0.582770000000     0.559170000000     0.0413176  
H573     H      0.189010000000     0.643040000000     0.528410000000     0.0498862  
H574     H      0.164980000000     0.645690000000     0.550940000000     0.0349962  
H575     H      0.187960000000     0.660600000000     0.623950000000     0.0500709  
H576     H      0.166980000000     0.691410000000     0.588940000000     0.0398281  
H577     H      0.261400000000     0.911860000000     0.554090000000     0.0403759  
H578     H      0.280840000000     0.872660000000     0.591500000000     0.0411774  
H579     H      0.256860000000     0.877480000000     0.630120000000     0.0495644  
H580     H      0.238310000000     0.887830000000     0.535930000000     0.0480194  
H581     H      0.224110000000     0.940730000000     0.567190000000     0.0442817  
H582     H      0.211830000000     0.891490000000     0.572920000000     0.0432317  
H583     H      0.270280000000     0.822650000000     0.599120000000     0.0503211  
H584     H      0.233480000000     0.849390000000     0.615350000000     0.0439951  
H585     H      0.345020000000     0.696100000000     0.869670000000     0.0402708  
H586     H      0.368100000000     0.750400000000     0.832040000000     0.035017   
H587     H      0.344890000000     0.751880000000     0.792060000000     0.0471711  
H588     H      0.318010000000     0.717110000000     0.880920000000     0.0496447  
H589     H      0.314790000000     0.664370000000     0.844310000000     0.0490295  
H590     H      0.299660000000     0.711490000000     0.839460000000     0.0414108  
H591     H      0.352990000000     0.797880000000     0.829180000000     0.0494324  
H592     H      0.318870000000     0.765480000000     0.809890000000     0.0415036  
H593     H      0.377490000000     0.959840000000     0.834040000000     0.0397885  
H594     H      0.331060000000     0.947200000000     0.829330000000     0.0421403  
H595     H      0.311880000000     0.942620000000     0.871930000000     0.0497525  
H596     H      0.386450000000     0.009330000000     0.844740000000     0.0461879  
H597     H      0.386880000000     0.955220000000     0.879850000000     0.0499617  
H598     H      0.369280000000     0.998960000000     0.887220000000     0.0449434  
H599     H      0.312160000000     0.990060000000     0.834640000000     0.049605   
H600     H      0.322980000000     0.991740000000     0.880800000000     0.0428652  
H601     H      0.268300000000     0.539020000000     0.737610000000     0.0432274  
H602     H      0.300000000000     0.998150000000     0.732120000000     0.0419384  
H603     H      0.293700000000     0.010740000000     0.686090000000     0.0498003  
H604     H      0.268460000000     0.589960000000     0.749950000000     0.0488422  
H605     H      0.234840000000     0.573770000000     0.720080000000     0.0507435  
H606     H      0.252040000000     0.616510000000     0.709840000000     0.0421605  
H607     H      0.322210000000     0.032230000000     0.720360000000     0.0488764  
H608     H      0.295710000000     0.064650000000     0.690570000000     0.0439148  
H609     H      0.781820000000     0.619240000000     0.220180000000     0.0424975  
H610     H      0.747340000000     0.661390000000     0.244100000000     0.0443237  
H611     H      0.717650000000     0.613750000000     0.259990000000     0.050873   
H612     H      0.843290000000     0.094010000000     0.228770000000     0.0496563  
H613     H      0.810170000000     0.056650000000     0.207490000000     0.0488974  
H614     H      0.805890000000     0.063580000000     0.241800000000     0.0432607  
H615     H      0.747560000000     0.661190000000     0.279020000000     0.0502267  
H616     H      0.775570000000     0.123170000000     0.256030000000     0.0443435  
H617     H      0.751740000000     0.682160000000     0.128490000000     0.0418683  
H618     H      0.723110000000     0.653560000000     0.087610000000     0.0407594  
H619     H      0.684260000000     0.645110000000     0.105770000000     0.0445207  
H620     H      0.749200000000     0.735680000000     0.134540000000     0.0503725  
H621     H      0.727210000000     0.694180000000     0.166930000000     0.0477842  
H622     H      0.708580000000     0.727890000000     0.148720000000     0.0437788  
H623     H      0.704460000000     0.691560000000     0.073600000000     0.0464123  
H624     H      0.682120000000     0.698250000000     0.113250000000     0.0517717  
H625     H      0.795560000000     0.950780000000     0.090960000000     0.0412409  
H626     H      0.792750000000     0.908470000000     0.131930000000     0.0417772  
H627     H      0.757160000000     0.923520000000     0.156270000000     0.047376   
H628     H      0.778740000000     0.936400000000     0.062820000000     0.0483155  
H629     H      0.762070000000     0.996120000000     0.087260000000     0.0462193  
H630     H      0.742170000000     0.954160000000     0.084460000000     0.0393106  
H631     H      0.774330000000     0.864160000000     0.132260000000     0.050161   
H632     H      0.738960000000     0.906040000000     0.130080000000     0.0364481  
H633     H      0.853620000000     0.715290000000     0.035170000000     0.0397783  
H634     H      0.824280000000     0.659930000000     0.024240000000     0.0400403  
H635     H      0.787580000000     0.687460000000     0.007480000000     0.0496881  
H636     H      0.869690000000     0.739470000000     0.009380000000     0.0486246  
H637     H      0.836390000000     0.781530000000     0.027630000000     0.0476573  
H638     H      0.834240000000     0.772330000000     0.993340000000     0.0440506  
H639     H      0.820630000000     0.644490000000     0.990950000000     0.0506669  
H640     H      0.802340000000     0.709520000000     0.980080000000     0.046458   
H641     H      0.757430000000     0.802120000000     0.373260000000     0.0396     
H642     H      0.773440000000     0.760820000000     0.408910000000     0.0408782  
H643     H      0.808950000000     0.724460000000     0.397390000000     0.0480629  
H644     H      0.770600000000     0.849940000000     0.364920000000     0.0500093  
H645     H      0.779620000000     0.790140000000     0.334640000000     0.0490992  
H646     H      0.804470000000     0.817340000000     0.346510000000     0.046317   
H647     H      0.797190000000     0.779830000000     0.428590000000     0.049503   
H648     H      0.825060000000     0.770720000000     0.393240000000     0.039348   
H649     H      0.814240000000     0.058760000000     0.369110000000     0.0409006  
H650     H      0.857970000000     0.060990000000     0.389320000000     0.0411666  
H651     H      0.876940000000     0.995270000000     0.382340000000     0.0502757  
H652     H      0.811940000000     0.063850000000     0.334380000000     0.0482208  
H653     H      0.807410000000     0.992070000000     0.349140000000     0.0485564  
H654     H      0.832140000000     0.999210000000     0.327890000000     0.0384943  
H655     H      0.881680000000     0.067330000000     0.366860000000     0.0453419  
H656     H      0.873850000000     0.000480000000     0.347710000000     0.0456607  
H657     H      0.788790000000     0.012580000000     0.508470000000     0.0452477  
H658     H      0.748580000000     0.971360000000     0.492130000000     0.0437964  
H659     H      0.720840000000     0.020410000000     0.473190000000     0.0492256  
H660     H      0.807750000000     0.029290000000     0.482770000000     0.0493387  
H661     H      0.781680000000     0.084500000000     0.501090000000     0.0497808  
H662     H      0.778220000000     0.076240000000     0.466750000000     0.0399235  
H663     H      0.746420000000     0.963880000000     0.457600000000     0.0483961  
H664     H      0.742770000000     0.037050000000     0.450370000000     0.0404811  
H665     H      0.741550000000     0.959710000000     0.628390000000     0.0436073  
H666     H      0.693770000000     0.965880000000     0.634680000000     0.0425171  
H667     H      0.675340000000     0.971020000000     0.592020000000     0.0427269  
H668     H      0.752100000000     0.910930000000     0.618100000000     0.0497051  
H669     H      0.750290000000     0.962060000000     0.582010000000     0.0486454  
H670     H      0.732780000000     0.917610000000     0.576230000000     0.0393508  
H671     H      0.677330000000     0.920560000000     0.628430000000     0.044209   
H672     H      0.687430000000     0.923060000000     0.582270000000     0.0370145  
H673     H      0.703480000000     0.664570000000     0.628530000000     0.0387251  
H674     H      0.730480000000     0.705670000000     0.586770000000     0.0442377  
H675     H      0.759070000000     0.743870000000     0.610580000000     0.0497973  
H676     H      0.717540000000     0.618480000000     0.638580000000     0.049957   
H677     H      0.723770000000     0.675110000000     0.669860000000     0.05001    
H678     H      0.750770000000     0.655930000000     0.656430000000     0.0423904  
H679     H      0.757800000000     0.680730000000     0.581400000000     0.0507552  
H680     H      0.772780000000     0.698810000000     0.622960000000     0.0411613  
H681     H      0.848070000000     0.036240000000     0.899190000000     0.0378856  
H682     H      0.835290000000     0.085510000000     0.853470000000     0.042757   
H683     H      0.797430000000     0.060690000000     0.839210000000     0.0484657  
H684     H      0.832340000000     0.052100000000     0.927620000000     0.0461595  
H685     H      0.815400000000     0.989760000000     0.906280000000     0.0478997  
H686     H      0.795090000000     0.031300000000     0.909180000000     0.0406416  
H687     H      0.813790000000     0.123220000000     0.861520000000     0.0484717  
H688     H      0.784360000000     0.072030000000     0.870220000000     0.041052   
H689     H      0.846720000000     0.829810000000     0.911340000000     0.0426853  
H690     H      0.887660000000     0.832350000000     0.887310000000     0.0462125  
H691     H      0.895510000000     0.766260000000     0.868340000000     0.0493285  
H692     H      0.820620000000     0.835070000000     0.891930000000     0.0507215  
H693     H      0.827860000000     0.763680000000     0.905640000000     0.0489487  
H694     H      0.828050000000     0.769620000000     0.870890000000     0.0428399  
H695     H      0.887440000000     0.837210000000     0.852510000000     0.0469972  
H696     H      0.870340000000     0.770100000000     0.847510000000     0.0416369  
H697     H      0.740510000000     0.877670000000     0.784990000000     0.0426851  
H698     H      0.766500000000     0.813650000000     0.780520000000     0.0416226  
H699     H      0.777870000000     0.802500000000     0.735520000000     0.049169   
H700     H      0.754480000000     0.926580000000     0.784370000000     0.0496745  
H701     H      0.734080000000     0.908100000000     0.742620000000     0.0501629  
H702     H      0.764850000000     0.918450000000     0.738770000000     0.0430502  
H703     H      0.797740000000     0.819980000000     0.777510000000     0.0490534  
H704     H      0.793240000000     0.850040000000     0.734420000000     0.0442102  
H705     H      0.172520000000     0.784600000000     0.611090000000     0.0405901  
H706     H      0.169860000000     0.777810000000     0.558270000000     0.042914   
H707     H      0.152050000000     0.840060000000     0.543120000000     0.0416339  
H708     H      0.197930000000     0.812120000000     0.622350000000     0.0382017  
H709     H      0.158570000000     0.851760000000     0.623630000000     0.0299732  
H710     H      0.182110000000     0.876300000000     0.606310000000     0.0397923  
H711     H      0.193020000000     0.804040000000     0.541260000000     0.0350502  
H712     H      0.177140000000     0.869970000000     0.552320000000     0.0442294  
H713     H      0.943990000000     0.651320000000     0.843830000000     0.054693   
H714     H      0.960680000000     0.580610000000     0.820980000000     0.0314732  
H715     H      0.970920000000     0.534460000000     0.855920000000     0.0347848  
H716     H      0.914130000000     0.647350000000     0.854680000000     0.0503433  
H717     H      0.946310000000     0.641210000000     0.890520000000     0.0333993  
H718     H      0.924800000000     0.601080000000     0.889650000000     0.0377577  
H719     H      0.938920000000     0.540890000000     0.819970000000     0.0349878  
H720     H      0.940850000000     0.531110000000     0.866790000000     0.0393119  
H721     H      0.035050000000     0.787880000000     0.720880000000     0.0417007  
H722     H      0.068720000000     0.773450000000     0.752910000000     0.0409453  
H723     H      0.068700000000     0.702200000000     0.765230000000     0.0482534  
H724     H      0.039010000000     0.775420000000     0.687150000000     0.0495876  
H725     H      0.013110000000     0.726340000000     0.710730000000     0.0500984  
H726     H      0.038830000000     0.702840000000     0.697240000000     0.0441738  
H727     H      0.095160000000     0.750240000000     0.740870000000     0.049509   
H728     H      0.074500000000     0.686760000000     0.732380000000     0.0443243  
H729     H      0.822720000000     0.869130000000     0.316270000000     0.0433826  
H730     H      0.847850000000     0.820470000000     0.349920000000     0.0421382  
H731     H      0.889030000000     0.838870000000     0.345470000000     0.0423886  
H732     H      0.817770000000     0.919550000000     0.328680000000     0.043677   
H733     H      0.851020000000     0.912030000000     0.294100000000     0.0433912  
H734     H      0.859040000000     0.937490000000     0.323820000000     0.0483626  
H735     H      0.855670000000     0.845640000000     0.379810000000     0.0375127  
H736     H      0.883730000000     0.889410000000     0.357720000000     0.0528195  
H737     H      0.149820000000     0.064190000000     0.097400000000     0.0408009  
H738     H      0.123370000000     0.010150000000     0.068540000000     0.0439223  
H739     H      0.141580000000     0.943810000000     0.073170000000     0.0467636  
H740     H      0.143620000000     0.062060000000     0.131740000000     0.0416181  
H741     H      0.181900000000     0.025310000000     0.116490000000     0.042076   
H742     H      0.162020000000     0.995800000000     0.136080000000     0.0534584  
H743     H      0.103390000000     0.980590000000     0.088080000000     0.0440646  
H744     H      0.135360000000     0.942260000000     0.107580000000     0.0450013  
H745     H      0.011300000000     0.887230000000     0.214980000000     0.0410152  
H746     H      0.989580000000     0.955160000000     0.202710000000     0.0408701  
H747     H      0.982460000000     0.995770000000     0.241450000000     0.0498313  
H748     H      0.042260000000     0.889880000000     0.221640000000     0.0491379  
H749     H      0.017130000000     0.884220000000     0.261730000000     0.0504585  
H750     H      0.035340000000     0.928730000000     0.261160000000     0.0446488  
H751     H      0.006820000000     0.000760000000     0.201130000000     0.048199   
H752     H      0.013370000000     0.999340000000     0.247980000000     0.0435661  
H753     H      0.160160000000     0.730200000000     0.142110000000     0.0540821  
H754     H      0.185200000000     0.703000000000     0.099560000000     0.0461922  
H755     H      0.159330000000     0.655580000000     0.077140000000     0.0280827  
H756     H      0.140110000000     0.770820000000     0.134390000000     0.0407583  
H757     H      0.121530000000     0.699830000000     0.140880000000     0.038799   
H758     H      0.114240000000     0.724820000000     0.110700000000     0.0503533  
H759     H      0.177080000000     0.727840000000     0.069710000000     0.0480126  
H760     H      0.138990000000     0.695150000000     0.068770000000     0.0248782  
H761     H      0.071510000000     0.581550000000     0.065000000000     0.0426541  
H762     H      0.051740000000     0.630860000000     0.097370000000     0.0410857  
H763     H      0.070250000000     0.622480000000     0.138830000000     0.0490062  
H764     H      0.097860000000     0.597680000000     0.048690000000     0.0494666  
H765     H      0.105160000000     0.546980000000     0.083570000000     0.0527448  
H766     H      0.120190000000     0.594110000000     0.089140000000     0.0409421  
H767     H      0.066260000000     0.677900000000     0.104600000000     0.0465661  
H768     H      0.097280000000     0.643770000000     0.127730000000     0.043695   
H769     H      0.103660000000     0.903820000000     0.062670000000     0.0381612  
H770     H      0.135860000000     0.870490000000     0.090330000000     0.0380452  
H771     H      0.121120000000     0.860810000000     0.134100000000     0.0476097  
H772     H      0.081560000000     0.872190000000     0.048070000000     0.0487994  
H773     H      0.066310000000     0.910640000000     0.086000000000     0.0507159  
H774     H      0.064970000000     0.856770000000     0.091130000000     0.0428542  
H775     H      0.134410000000     0.817090000000     0.096330000000     0.051445   
H776     H      0.099510000000     0.825040000000     0.123100000000     0.0413171  
H777     H      0.909090000000     0.899480000000     0.874400000000     0.0508056  
H778     H      0.882100000000     0.925230000000     0.915620000000     0.0506432  
H779     H      0.898940000000     0.989130000000     0.930090000000     0.0387065  
H780     H      0.901520000000     0.923520000000     0.844070000000     0.0518609  
H781     H      0.939160000000     0.950370000000     0.866680000000     0.0350996  
H782     H      0.917580000000     0.988160000000     0.858110000000     0.0410094  
H783     H      0.860930000000     0.963440000000     0.906860000000     0.0418728  
H784     H      0.891200000000     0.014150000000     0.900130000000     0.0369575  
H785     H      0.978510000000     0.801150000000     0.833970000000     0.0430474  
H786     H      0.985190000000     0.745230000000     0.875020000000     0.0429811  
H787     H      0.948310000000     0.740200000000     0.899770000000     0.0598824  
H788     H      0.960750000000     0.782130000000     0.807830000000     0.0491457  
H789     H      0.938770000000     0.828010000000     0.838940000000     0.0460069  
H790     H      0.926390000000     0.778070000000     0.835650000000     0.0375527  
H791     H      0.971940000000     0.696590000000     0.869740000000     0.0492086  
H792     H      0.932590000000     0.726480000000     0.870720000000     0.0462897  
H793     H      0.971950000000     0.974570000000     0.832480000000     0.0411795  
H794     H      0.954590000000     0.026560000000     0.873040000000     0.0403798  
H795     H      0.979440000000     0.016700000000     0.910960000000     0.0504935  
H796     H      0.998390000000     0.993150000000     0.817760000000     0.0497253  
H797     H      0.004960000000     0.937590000000     0.850800000000     0.0496683  
H798     H      0.020430000000     0.983940000000     0.857570000000     0.0415487  
H799     H      0.972160000000     0.071020000000     0.877730000000     0.0465338  
H800     H      0.005190000000     0.030940000000     0.892860000000     0.0410966  
H801     H      0.015730000000     0.740120000000     0.968180000000     0.042771   
H802     H      0.046590000000     0.771910000000     0.937370000000     0.0414763  
H803     H      0.043650000000     0.845930000000     0.937430000000     0.0492533  
H804     H      0.021320000000     0.740780000000     0.002590000000     0.0490318  
H805     H      0.991910000000     0.793090000000     0.988350000000     0.051255   
H806     H      0.017340000000     0.814670000000     0.003740000000     0.0434781  
H807     H      0.072820000000     0.793240000000     0.951230000000     0.0503345  
H808     H      0.050040000000     0.847750000000     0.971610000000     0.0447428  
H809     H      0.880850000000     0.775830000000     0.374400000000     0.0370428  
H810     H      0.915220000000     0.777290000000     0.335570000000     0.0413711  
H811     H      0.942510000000     0.722850000000     0.345710000000     0.038452   
H812     H      0.858960000000     0.737390000000     0.368910000000     0.0412748  
H813     H      0.890820000000     0.720710000000     0.403510000000     0.0442941  
H814     H      0.886480000000     0.683080000000     0.378480000000     0.0518723  
H815     H      0.910450000000     0.739230000000     0.311010000000     0.0403729  
H816     H      0.920370000000     0.684500000000     0.340620000000     0.0443877  
H817     H      0.965910000000     0.783480000000     0.364390000000     0.0422302  
H818     H      0.919290000000     0.808280000000     0.378430000000     0.0416053  
H819     H      0.918910000000     0.819320000000     0.425160000000     0.0494263  
H820     H      0.986530000000     0.824620000000     0.363950000000     0.0496829  
H821     H      0.988690000000     0.781350000000     0.404400000000     0.0505665  
H822     H      0.983060000000     0.834200000000     0.410570000000     0.0415663  
H823     H      0.916900000000     0.861640000000     0.384680000000     0.0464535  
H824     H      0.941860000000     0.856570000000     0.422580000000     0.041229   
H825     H      0.971550000000     0.037120000000     0.380310000000     0.0438134  
H826     H      0.923180000000     0.046560000000     0.371870000000     0.0391908  
H827     H      0.917520000000     0.114000000000     0.353550000000     0.0594526  
H828     H      0.988190000000     0.024810000000     0.351710000000     0.0495787  
H829     H      0.991880000000     0.097770000000     0.364250000000     0.0505198  
H830     H      0.979420000000     0.090800000000     0.332430000000     0.0423897  
H831     H      0.914240000000     0.041150000000     0.338570000000     0.0519596  
H832     H      0.935500000000     0.101730000000     0.325940000000     0.0506492  
H833     H      0.186460000000     0.980480000000     0.571160000000     0.0546291  
H834     H      0.167670000000     0.953740000000     0.617580000000     0.0289275  
H835     H      0.137140000000     0.001830000000     0.629710000000     0.0463057  
H836     H      0.168770000000     0.967280000000     0.543310000000     0.0423199  
H837     H      0.165600000000     0.042090000000     0.559270000000     0.0410908  
H838     H      0.138230000000     0.015130000000     0.555570000000     0.0414132  
H839     H      0.140190000000     0.927120000000     0.613680000000     0.0358397  
H840     H      0.119510000000     0.988770000000     0.601780000000     0.0459829  
H841     H      0.141020000000     0.623510000000     0.587930000000     0.0410862  
H842     H      0.127840000000     0.592220000000     0.629500000000     0.050339   
H843     H      0.103120000000     0.638230000000     0.653770000000     0.049876   
H844     H      0.121980000000     0.623150000000     0.559970000000     0.0458941  
H845     H      0.125020000000     0.691340000000     0.581960000000     0.0464895  
H846     H      0.095640000000     0.672090000000     0.580360000000     0.0446238  
H847     H      0.099060000000     0.570030000000     0.631830000000     0.05306    
H848     H      0.080490000000     0.636360000000     0.629550000000     0.044015   
H849     H      0.067690000000     0.855900000000     0.560140000000     0.0405203  
H850     H      0.046300000000     0.889070000000     0.597810000000     0.0414838  
H851     H      0.072060000000     0.897170000000     0.635310000000     0.0498603  
H852     H      0.086900000000     0.885970000000     0.540170000000     0.0483414  
H853     H      0.108110000000     0.840460000000     0.571570000000     0.0540859  
H854     H      0.114760000000     0.893380000000     0.575830000000     0.0496662  
H855     H      0.050560000000     0.942300000000     0.603960000000     0.0501971  
H856     H      0.091170000000     0.930390000000     0.617500000000     0.0401896  
H857     H      0.025010000000     0.146250000000     0.483350000000     0.0438641  
H858     H      0.996680000000     0.566400000000     0.485180000000     0.0447407  
H859     H      0.985100000000     0.529080000000     0.524180000000     0.0484742  
H860     H      0.004060000000     0.181510000000     0.496610000000     0.0483013  
H861     H      0.027870000000     0.145500000000     0.530690000000     0.0480061  
H862     H      0.996590000000     0.139800000000     0.533880000000     0.04044    
H863     H      0.965210000000     0.565600000000     0.487470000000     0.0491962  
H864     H      0.966830000000     0.569950000000     0.534900000000     0.0408163  
H865     H      0.645060000000     0.822220000000     0.096170000000     0.0350742  
H866     H      0.674860000000     0.859950000000     0.130340000000     0.0481882  
H867     H      0.708620000000     0.815610000000     0.136320000000     0.0400139  
H868     H      0.653720000000     0.827580000000     0.062600000000     0.0393872  
H869     H      0.663030000000     0.758120000000     0.084290000000     0.0458594  
H870     H      0.687170000000     0.782690000000     0.068330000000     0.0570141  
H871     H      0.699170000000     0.885270000000     0.114750000000     0.035075   
H872     H      0.717470000000     0.821390000000     0.102890000000     0.0352112  
H873     H      0.429880000000     0.529200000000     0.346600000000     0.0403297  
H874     H      0.458220000000     0.549070000000     0.388270000000     0.0430829  
H875     H      0.477550000000     0.613050000000     0.377450000000     0.0367128  
H876     H      0.402510000000     0.556550000000     0.346280000000     0.0451918  
H877     H      0.434830000000     0.582060000000     0.314370000000     0.0484678  
H878     H      0.421870000000     0.619890000000     0.335270000000     0.0481134  
H879     H      0.445530000000     0.586750000000     0.409340000000     0.0483766  
H880     H      0.449940000000     0.639900000000     0.377080000000     0.0484214  
H881     H      0.583490000000     0.657860000000     0.244280000000     0.0426762  
H882     H      0.584070000000     0.731840000000     0.263030000000     0.0417793  
H883     H      0.573950000000     0.780310000000     0.229130000000     0.0483226  
H884     H      0.555450000000     0.633560000000     0.240230000000     0.0488075  
H885     H      0.572690000000     0.658880000000     0.198450000000     0.0507511  
H886     H      0.544630000000     0.680960000000     0.205820000000     0.0426527  
H887     H      0.556430000000     0.755100000000     0.270920000000     0.0502942  
H888     H      0.545390000000     0.757940000000     0.225130000000     0.0432555  
H889     H      0.710360000000     0.818420000000     0.602310000000     0.040446   
H890     H      0.697580000000     0.740170000000     0.614430000000     0.0405414  
H891     H      0.655570000000     0.740380000000     0.621170000000     0.0437015  
H892     H      0.705230000000     0.831490000000     0.568750000000     0.0397652  
H893     H      0.674710000000     0.858840000000     0.602000000000     0.0454035  
H894     H      0.662890000000     0.831430000000     0.574690000000     0.0602729  
H895     H      0.685650000000     0.712700000000     0.587160000000     0.0345898  
H896     H      0.649910000000     0.752320000000     0.587580000000     0.0388087  
H897     H      0.450820000000     0.812620000000     0.318590000000     0.0433422  
H898     H      0.420230000000     0.829390000000     0.359070000000     0.0414317  
H899     H      0.433500000000     0.891080000000     0.380020000000     0.0420054  
H900     H      0.445650000000     0.843610000000     0.290330000000     0.047284   
H901     H      0.480810000000     0.864880000000     0.320060000000     0.0392537  
H902     H      0.460040000000     0.904180000000     0.311800000000     0.0424623  
H903     H      0.398990000000     0.867740000000     0.351310000000     0.0389283  
H904     H      0.428750000000     0.920940000000     0.351160000000     0.0411183  
H905     H      0.500820000000     0.812440000000     0.356920000000     0.0427478  
H906     H      0.454900000000     0.787690000000     0.362820000000     0.0396379  
H907     H      0.455560000000     0.717140000000     0.376010000000     0.0433149  
H908     H      0.515910000000     0.825440000000     0.386450000000     0.0490293  
H909     H      0.527360000000     0.757250000000     0.369990000000     0.0508392  
H910     H      0.513860000000     0.755100000000     0.401580000000     0.0412484  
H911     H      0.444530000000     0.784860000000     0.395720000000     0.0466757  
H912     H      0.471270000000     0.729390000000     0.405280000000     0.0406699  
H913     H      0.510030000000     0.994890000000     0.347030000000     0.042156   
H914     H      0.466440000000     0.984600000000     0.332810000000     0.0406905  
H915     H      0.439800000000     0.993080000000     0.369730000000     0.0438578  
H916     H      0.520340000000     0.045820000000     0.352100000000     0.0506108  
H917     H      0.511820000000     0.008110000000     0.393600000000     0.0510065  
H918     H      0.494880000000     0.053770000000     0.389980000000     0.0443381  
H919     H      0.448530000000     0.028830000000     0.327940000000     0.0453686  
H920     H      0.449730000000     0.044200000000     0.374590000000     0.0395373  
H921     H      0.499710000000     0.852760000000     0.535520000000     0.0429852  
H922     H      0.528190000000     0.912140000000     0.524790000000     0.0431916  
H923     H      0.565900000000     0.886080000000     0.509340000000     0.0499848  
H924     H      0.485190000000     0.827430000000     0.509100000000     0.0496792  
H925     H      0.518900000000     0.787740000000     0.527730000000     0.0508297  
H926     H      0.522470000000     0.799310000000     0.493830000000     0.0419826  
H927     H      0.532210000000     0.926000000000     0.491260000000     0.0512278  
H928     H      0.551940000000     0.861520000000     0.482270000000     0.0422846  
H929     H      0.681440000000     0.054050000000     0.616080000000     0.0540772  
H930     H      0.676840000000     0.136820000000     0.618610000000     0.0399801  
H931     H      0.640350000000     0.155470000000     0.596870000000     0.0357118  
H932     H      0.663590000000     0.027350000000     0.639150000000     0.0569995  
H933     H      0.647720000000     0.029510000000     0.591500000000     0.0512811  
H934     H      0.627470000000     0.045400000000     0.616400000000     0.0433161  
H935     H      0.657130000000     0.153560000000     0.643930000000     0.036914   
H936     H      0.623130000000     0.127870000000     0.620350000000     0.0400703  
H937     H      0.552650000000     0.698230000000     0.652290000000     0.0423344  
H938     H      0.593730000000     0.713390000000     0.668770000000     0.0421022  
H939     H      0.619830000000     0.655490000000     0.666150000000     0.0497239  
H940     H      0.547620000000     0.694680000000     0.617870000000     0.0507466  
H941     H      0.550120000000     0.627360000000     0.642200000000     0.0508419  
H942     H      0.569310000000     0.632270000000     0.614830000000     0.0431456  
H943     H      0.616710000000     0.724210000000     0.645850000000     0.0482819  
H944     H      0.617420000000     0.653900000000     0.631440000000     0.0442279  
H945     H      0.629330000000     0.894860000000     0.643280000000     0.0472907  
H946     H      0.582290000000     0.895050000000     0.653310000000     0.0436864  
H947     H      0.564630000000     0.960780000000     0.642120000000     0.050894   
H948     H      0.637380000000     0.894360000000     0.609540000000     0.0474967  
H949     H      0.639640000000     0.963420000000     0.631080000000     0.0423735  
H950     H      0.621460000000     0.961220000000     0.602580000000     0.0381504  
H951     H      0.563220000000     0.890310000000     0.625640000000     0.0501622  
H952     H      0.575660000000     0.956910000000     0.609480000000     0.0429239  
H953     H      0.417310000000     0.878940000000     0.854160000000     0.0452306  
H954     H      0.396520000000     0.904600000000     0.808390000000     0.0468402  
H955     H      0.402040000000     0.851460000000     0.776270000000     0.0506114  
H956     H      0.399830000000     0.842940000000     0.871830000000     0.0455038  
H957     H      0.434680000000     0.813630000000     0.844840000000     0.0393377  
H958     H      0.406390000000     0.790180000000     0.839860000000     0.0383068  
H959     H      0.367830000000     0.882700000000     0.803200000000     0.0400672  
H960     H      0.384540000000     0.815950000000     0.794630000000     0.0398231  
H961     H      0.525630000000     0.992290000000     0.727220000000     0.04434    
H962     H      0.559550000000     0.928380000000     0.731770000000     0.0454412  
H963     H      0.591930000000     0.954270000000     0.758300000000     0.0489098  
H964     H      0.508600000000     0.999670000000     0.756170000000     0.0489232  
H965     H      0.541410000000     0.050430000000     0.750720000000     0.0481025  
H966     H      0.542890000000     0.021680000000     0.780420000000     0.0400734  
H967     H      0.559100000000     0.903700000000     0.762870000000     0.0508391  
H968     H      0.572180000000     0.965140000000     0.784680000000     0.0404779  
H969     H      0.722160000000     0.012760000000     0.060540000000     0.0409235  
H970     H      0.700140000000     0.953430000000     0.089940000000     0.0399394  
H971     H      0.683240000000     0.987110000000     0.127410000000     0.0374914  
H972     H      0.702030000000     0.041290000000     0.040610000000     0.0431748  
H973     H      0.716380000000     0.076660000000     0.083070000000     0.0411274  
H974     H      0.685050000000     0.075100000000     0.078040000000     0.0521959  
H975     H      0.668860000000     0.951710000000     0.084940000000     0.0436055  
H976     H      0.663030000000     0.015700000000     0.107610000000     0.0608804  
H977     H      0.633230000000     0.678630000000     0.053040000000     0.0398401  
H978     H      0.589240000000     0.669690000000     0.059920000000     0.0415813  
H979     H      0.579820000000     0.601970000000     0.075870000000     0.0498794  
H980     H      0.651820000000     0.687420000000     0.080640000000     0.0397538  
H981     H      0.654050000000     0.616260000000     0.063170000000     0.0478689  
H982     H      0.645030000000     0.618570000000     0.096590000000     0.0454106  
H983     H      0.577410000000     0.673280000000     0.092260000000     0.0510985  
H984     H      0.596890000000     0.609980000000     0.104790000000     0.0457667  
H985     H      0.640260000000     0.905120000000     0.110650000000     0.0417942  
H986     H      0.612180000000     0.866580000000     0.072710000000     0.0405693  
H987     H      0.577210000000     0.840260000000     0.094460000000     0.0492693  
H988     H      0.629730000000     0.953930000000     0.120520000000     0.0450106  
H989     H      0.620410000000     0.898100000000     0.152240000000     0.0480441  
H990     H      0.594950000000     0.924370000000     0.140150000000     0.0407789  
H991     H      0.587080000000     0.895580000000     0.062720000000     0.0502067  
H992     H      0.569450000000     0.890160000000     0.105630000000     0.0416393  
H993     H      0.428590000000     0.631140000000     0.867370000000     0.0533391  
H994     H      0.397870000000     0.692010000000     0.854750000000     0.0397439  
H995     H      0.404450000000     0.708140000000     0.809340000000     0.033157   
H996     H      0.418870000000     0.581510000000     0.857710000000     0.0467951  
H997     H      0.450920000000     0.614670000000     0.828320000000     0.0401048  
H998     H      0.425090000000     0.596550000000     0.811730000000     0.0491126  
H999     H      0.372150000000     0.674050000000     0.837830000000     0.0406383  
H1000    H      0.394090000000     0.659170000000     0.798870000000     0.0354761  
H1001    H      0.492700000000     0.962590000000     0.855850000000     0.0430071  
H1002    H      0.459970000000     0.009580000000     0.824290000000     0.042362   
H1003    H      0.427770000000     0.963580000000     0.814990000000     0.0476852  
H1004    H      0.483790000000     0.959560000000     0.889270000000     0.0498482  
H1005    H      0.474560000000     0.896400000000     0.864350000000     0.0477888  
H1006    H      0.449010000000     0.920560000000     0.877900000000     0.0411297  
H1007    H      0.435010000000     0.026300000000     0.842620000000     0.045084   
H1008    H      0.421340000000     0.957820000000     0.849030000000     0.0359817  
H1009    H      0.513550000000     0.713240000000     0.806190000000     0.0425479  
H1010    H      0.467870000000     0.703590000000     0.805830000000     0.0469907  
H1011    H      0.450500000000     0.710470000000     0.849790000000     0.0495649  
H1012    H      0.524810000000     0.763510000000     0.811340000000     0.0513486  
H1013    H      0.526110000000     0.718170000000     0.851210000000     0.050654   
H1014    H      0.509980000000     0.764510000000     0.855680000000     0.0438115  
H1015    H      0.449630000000     0.748010000000     0.808020000000     0.0516527  
H1016    H      0.463350000000     0.759870000000     0.853000000000     0.0392931  
H1017    H      0.562580000000     0.061510000000     0.942110000000     0.042043   
H1018    H      0.535180000000     0.006920000000     0.968110000000     0.0434649  
H1019    H      0.549420000000     0.480970000000     0.977960000000     0.0496307  
H1020    H      0.568350000000     0.599780000000     0.922280000000     0.0511182  
H1021    H      0.583400000000     0.101390000000     0.974520000000     0.0488175  
H1022    H      0.564570000000     0.595660000000     0.969350000000     0.0439657  
H1023    H      0.523190000000     0.498960000000     0.940510000000     0.0494011  
H1024    H      0.535360000000     0.529510000000     0.981640000000     0.0441153  
In1      In     0.473270000000     0.096390000000     0.911140000000     2.39695    
In2      In     0.617820000000     0.499260000000     0.029410000000     2.42902    
In3      In     0.475040000000     0.342390000000     0.778900000000     2.41614    
In4      In     0.595100000000     0.520250000000     0.679220000000     2.42348    
In5      In     0.480620000000     0.401500000000     0.420200000000     2.39588    
In6      In     0.599260000000     0.280920000000     0.559700000000     2.39846    
In7      In     0.487390000000     0.145660000000     0.297270000000     2.40382    
In8      In     0.618050000000     0.276310000000     0.174000000000     2.39369    
In9      In     0.063370000000     0.521750000000     0.554900000000     2.38708    
In10     In     0.953600000000     0.184610000000     0.423010000000     2.39197    
In11     In     0.002200000000     0.403830000000     0.897730000000     2.39783    
In12     In     0.093830000000     0.235010000000     0.043420000000     2.39801    
In13     In     0.098520000000     0.494690000000     0.168220000000     2.40598    
In14     In     0.965890000000     0.442960000000     0.313330000000     2.40259    
In15     In     0.975650000000     0.126670000000     0.793860000000     2.41382    
In16     In     0.098480000000     0.262260000000     0.665850000000     2.3821     
In17     In     0.849260000000     0.416920000000     0.805660000000     2.40084    
In18     In     0.721010000000     0.303270000000     0.691370000000     2.39998    
In19     In     0.850010000000     0.412380000000     0.433290000000     2.38745    
In20     In     0.724070000000     0.553710000000     0.557060000000     2.40532    
In21     In     0.859390000000     0.187980000000     0.926770000000     2.4024     
In22     In     0.734290000000     0.327700000000     0.046370000000     2.40813    
In23     In     0.701660000000     0.559660000000     0.177100000000     2.39748    
In24     In     0.862150000000     0.166320000000     0.304590000000     2.41484    
In25     In     0.343350000000     0.105350000000     0.795490000000     2.40735    
In26     In     0.203660000000     0.521690000000     0.641930000000     2.3945     
In27     In     0.355500000000     0.380900000000     0.900900000000     2.39539    
In28     In     0.227380000000     0.490240000000     0.037660000000     2.40924    
In29     In     0.368610000000     0.098560000000     0.431740000000     2.42962    
In30     In     0.232230000000     0.251070000000     0.531420000000     2.42541    
In31     In     0.225390000000     0.239320000000     0.165980000000     2.41103    
In32     In     0.354680000000     0.347990000000     0.303970000000     2.40261    
In33     In     0.489640000000     0.607270000000     0.894120000000     2.42237    
In34     In     0.617370000000     0.025510000000     0.042710000000     2.40063    
In35     In     0.479280000000     0.869370000000     0.774910000000     2.42002    
In36     In     0.606580000000     0.052110000000     0.693460000000     2.3977     
In37     In     0.466650000000     0.907910000000     0.436510000000     2.41386    
In38     In     0.592450000000     0.790680000000     0.570130000000     2.42245    
In39     In     0.501500000000     0.664470000000     0.307140000000     2.39693    
In40     In     0.617590000000     0.754660000000     0.152530000000     2.39546    
In41     In     0.074870000000     0.027790000000     0.535760000000     2.39468    
In42     In     0.939870000000     0.684050000000     0.444980000000     2.39962    
In43     In     0.964320000000     0.876710000000     0.920640000000     2.39904    
In44     In     0.100490000000     0.737160000000     0.029580000000     2.39276    
In45     In     0.081420000000     0.978180000000     0.163730000000     2.39592    
In46     In     0.948610000000     0.919730000000     0.308770000000     2.41206    
In47     In     0.992650000000     0.654110000000     0.786240000000     2.39046    
In48     In     0.116030000000     0.779720000000     0.654170000000     2.38382    
In49     In     0.829270000000     0.929420000000     0.824600000000     2.40383    
In50     In     0.716240000000     0.816930000000     0.674700000000     2.3951     
In51     In     0.819030000000     0.918210000000     0.426010000000     2.40232    
In52     In     0.713940000000     0.082950000000     0.554680000000     2.40581    
In53     In     0.882680000000     0.665920000000     0.931880000000     2.40205    
In54     In     0.756730000000     0.798640000000     0.053380000000     2.38563    
In55     In     0.737430000000     0.062430000000     0.164040000000     2.39767    
In56     In     0.823800000000     0.671890000000     0.313670000000     2.4057     
In57     In     0.349110000000     0.615530000000     0.765760000000     2.38496    
In58     In     0.217470000000     0.000380000000     0.650430000000     2.38648    
In59     In     0.350730000000     0.839430000000     0.916300000000     2.40534    
In60     In     0.223770000000     0.972440000000     0.046390000000     2.41985    
In61     In     0.370210000000     0.593300000000     0.425680000000     2.39052    
In62     In     0.246210000000     0.746680000000     0.525590000000     2.3896     
In63     In     0.215920000000     0.728130000000     0.179800000000     2.40882    
In64     In     0.353270000000     0.841240000000     0.300300000000     2.41244    
N1       N      0.304390000000     0.305330000000     0.254880000000    -0.166581   
N2       N      0.278280000000     0.282420000000     0.211230000000    -0.164997   
N3       N      0.357120000000     0.269810000000     0.364590000000    -0.165097   
N4       N      0.367990000000     0.191800000000     0.380530000000    -0.16543    
N5       N      0.339230000000     0.528260000000     0.367870000000    -0.165156   
N6       N      0.343310000000     0.456140000000     0.340160000000    -0.166449   
N7       N      0.321630000000     0.149020000000     0.481480000000    -0.165398   
N8       N      0.290590000000     0.183780000000     0.517100000000    -0.16583    
N9       N      0.226210000000     0.083480000000     0.080940000000    -0.166347   
N10      N      0.227150000000     0.134120000000     0.124450000000    -0.166968   
N11      N      0.222150000000     0.403410000000     0.093170000000    -0.164615   
N12      N      0.223250000000     0.322250000000     0.107750000000    -0.166217   
N13      N      0.303240000000     0.423700000000     0.947530000000    -0.168193   
N14      N      0.281130000000     0.449010000000     0.993010000000    -0.165736   
N15      N      0.208820000000     0.185280000000     0.592560000000    -0.165762   
N16      N      0.214830000000     0.106240000000     0.610060000000    -0.1649     
N17      N      0.218200000000     0.415690000000     0.604380000000    -0.16694    
N18      N      0.224960000000     0.364010000000     0.562080000000    -0.166348   
N19      N      0.330110000000     0.194870000000     0.848090000000    -0.166299   
N20      N      0.342610000000     0.271070000000     0.867450000000    -0.166299   
N21      N      0.362760000000     0.463650000000     0.843070000000    -0.164015   
N22      N      0.372870000000     0.512990000000     0.800830000000    -0.166587   
N23      N      0.257080000000     0.564080000000     0.686860000000    -0.164822   
N24      N      0.295690000000     0.058670000000     0.744830000000    -0.165373   
N25      N      0.743700000000     0.578540000000     0.239590000000    -0.165529   
N26      N      0.821070000000     0.143080000000     0.241760000000    -0.164859   
N27      N      0.734810000000     0.160850000000     0.116660000000    -0.165691   
N28      N      0.735840000000     0.212230000000     0.073740000000    -0.166573   
N29      N      0.728200000000     0.463500000000     0.137080000000    -0.165628   
N30      N      0.746560000000     0.397530000000     0.110170000000    -0.167644   
N31      N      0.780790000000     0.308160000000     0.987920000000    -0.166345   
N32      N      0.810700000000     0.247240000000     0.970510000000    -0.166635   
N33      N      0.850510000000     0.255200000000     0.357860000000    -0.164958   
N34      N      0.835540000000     0.303820000000     0.399010000000    -0.16545    
N35      N      0.848070000000     0.500410000000     0.378080000000    -0.165772   
N36      N      0.832520000000     0.576180000000     0.362120000000    -0.165698   
N37      N      0.770350000000     0.509050000000     0.504150000000    -0.166456   
N38      N      0.806000000000     0.456120000000     0.489200000000    -0.1684     
N39      N      0.724570000000     0.452970000000     0.602210000000    -0.165507   
N40      N      0.721660000000     0.404720000000     0.646520000000    -0.165455   
N41      N      0.750000000000     0.206660000000     0.653910000000    -0.167254   
N42      N      0.737030000000     0.154980000000     0.613710000000    -0.167079   
N43      N      0.844470000000     0.518740000000     0.849770000000    -0.165911   
N44      N      0.866780000000     0.570970000000     0.884490000000    -0.166556   
N45      N      0.881480000000     0.276740000000     0.877720000000    -0.166505   
N46      N      0.892380000000     0.339090000000     0.843750000000    -0.16671    
N47      N      0.758670000000     0.336480000000     0.755100000000    -0.165976   
N48      N      0.785920000000     0.361180000000     0.797070000000    -0.166967   
N49      N      0.128330000000     0.307440000000     0.587700000000    -0.0970225  
N50      N      0.172680000000     0.277810000000     0.583010000000    -0.0978466  
N51      N      0.912170000000     0.110300000000     0.827200000000    -0.105321   
N52      N      0.878770000000     0.127470000000     0.863100000000    -0.0990194  
N53      N      0.022010000000     0.157240000000     0.737010000000    -0.166634   
N54      N      0.051730000000     0.217660000000     0.718370000000    -0.166976   
N55      N      0.901250000000     0.417700000000     0.333910000000    -0.105698   
N56      N      0.860920000000     0.390850000000     0.356090000000    -0.102721   
N57      N      0.165510000000     0.479710000000     0.106930000000    -0.0973692  
N58      N      0.135590000000     0.489070000000     0.066170000000    -0.0983575  
N59      N      0.019280000000     0.479970000000     0.266620000000    -0.165863   
N60      N      0.048990000000     0.475240000000     0.223640000000    -0.166034   
N61      N      0.141440000000     0.167220000000     0.120020000000    -0.104774   
N62      N      0.157500000000     0.242350000000     0.107550000000    -0.0922963  
N63      N      0.073430000000     0.080620000000     0.120470000000    -0.164168   
N64      N      0.064900000000     0.150760000000     0.091630000000    -0.166589   
N65      N      0.092380000000     0.385110000000     0.132760000000    -0.166261   
N66      N      0.097520000000     0.333810000000     0.090070000000    -0.165274   
N67      N      0.971220000000     0.413540000000     0.822570000000    -0.0969828  
N68      N      0.924390000000     0.415710000000     0.812680000000    -0.0970961  
N69      N      0.990800000000     0.306010000000     0.851840000000    -0.164625   
N70      N      0.983680000000     0.224460000000     0.840710000000    -0.1653     
N71      N      0.033530000000     0.487200000000     0.850640000000    -0.166733   
N72      N      0.020070000000     0.555950000000     0.823100000000    -0.165272   
N73      N      0.036050000000     0.346230000000     0.956960000000    -0.167181   
N74      N      0.059600000000     0.281940000000     0.980770000000    -0.16657    
N75      N      0.953840000000     0.248990000000     0.317020000000    -0.10221    
N76      N      0.913110000000     0.274390000000     0.339230000000    -0.104399   
N77      N      0.983590000000     0.292330000000     0.402970000000    -0.167434   
N78      N      0.976630000000     0.353400000000     0.366420000000    -0.165994   
N79      N      0.940730000000     0.616920000000     0.378800000000    -0.165484   
N80      N      0.952750000000     0.541770000000     0.358110000000    -0.16498    
N81      N      0.136370000000     0.506980000000     0.602800000000    -0.100912   
N82      N      0.139110000000     0.434640000000     0.577740000000    -0.0996106  
N83      N      0.104420000000     0.164580000000     0.618340000000    -0.164299   
N84      N      0.111210000000     0.096630000000     0.587270000000    -0.164495   
N85      N      0.072190000000     0.357900000000     0.624860000000    -0.165471   
N86      N      0.050050000000     0.419750000000     0.597020000000    -0.165589   
N87      N      0.003150000000     0.582720000000     0.537170000000    -0.168275   
N88      N      0.989630000000     0.126870000000     0.480420000000    -0.166067   
N89      N      0.666040000000     0.258650000000     0.101400000000    -0.100923   
N90      N      0.662960000000     0.338010000000     0.087890000000    -0.104972   
N91      N      0.420880000000     0.143490000000     0.319030000000    -0.0960412  
N92      N      0.387020000000     0.109490000000     0.349090000000    -0.1005     
N93      N      0.571300000000     0.227410000000     0.225020000000    -0.167243   
N94      N      0.546510000000     0.197420000000     0.267660000000    -0.166589   
N95      N      0.665670000000     0.282930000000     0.620370000000    -0.0905775  
N96      N      0.695310000000     0.251780000000     0.584130000000    -0.0974237  
N97      N      0.428160000000     0.456680000000     0.377830000000    -0.106692   
N98      N      0.388100000000     0.412260000000     0.373990000000    -0.103389   
N99      N      0.467940000000     0.223250000000     0.354650000000    -0.166147   
N100     N      0.476330000000     0.299230000000     0.376250000000    -0.166264   
N101     N      0.499880000000     0.493580000000     0.371800000000    -0.166418   
N102     N      0.515560000000     0.552620000000     0.336930000000    -0.165792   
N103     N      0.554340000000     0.307320000000     0.500670000000    -0.165331   
N104     N      0.526630000000     0.365430000000     0.476020000000    -0.165257   
N105     N      0.639210000000     0.593370000000     0.569110000000    -0.0970417  
N106     N      0.656790000000     0.603350000000     0.617810000000    -0.100469   
N107     N      0.587100000000     0.154590000000     0.654390000000    -0.168645   
N108     N      0.576490000000     0.222650000000     0.624680000000    -0.165701   
N109     N      0.615680000000     0.469290000000     0.611240000000    -0.168033   
N110     N      0.610300000000     0.393460000000     0.588990000000    -0.165854   
N111     N      0.415440000000     0.306000000000     0.822060000000    -0.10638    
N112     N      0.381220000000     0.363500000000     0.822520000000    -0.101089   
N113     N      0.546720000000     0.440270000000     0.706890000000    -0.165837   
N114     N      0.513470000000     0.380310000000     0.717090000000    -0.165912   
N115     N      0.685900000000     0.474300000000     0.093000000000    -0.105635   
N116     N      0.697360000000     0.519340000000     0.050640000000    -0.0911144  
N117     N      0.618340000000     0.116000000000     0.096130000000    -0.166125   
N118     N      0.624480000000     0.193720000000     0.115840000000    -0.165143   
N119     N      0.601330000000     0.382230000000     0.137510000000    -0.167097   
N120     N      0.609600000000     0.424300000000     0.091420000000    -0.166445   
N121     N      0.442870000000     0.162340000000     0.815430000000    -0.100875   
N122     N      0.399950000000     0.148820000000     0.836710000000    -0.102079   
N123     N      0.477800000000     0.447910000000     0.819230000000    -0.166111   
N124     N      0.476750000000     0.528410000000     0.835320000000    -0.167554   
N125     N      0.483970000000     0.194580000000     0.864550000000    -0.165333   
N126     N      0.494070000000     0.265460000000     0.837020000000    -0.166423   
N127     N      0.571700000000     0.533060000000     0.973240000000    -0.165722   
N128     N      0.528530000000     0.067920000000     0.957980000000    -0.165868   
N129     N      0.294020000000     0.785650000000     0.273920000000    -0.166689   
N130     N      0.264760000000     0.764380000000     0.232490000000    -0.16476    
N131     N      0.380500000000     0.769630000000     0.356880000000    -0.166686   
N132     N      0.376680000000     0.696930000000     0.383890000000    -0.164558   
N133     N      0.358970000000     0.010940000000     0.377320000000    -0.165685   
N134     N      0.356520000000     0.940230000000     0.346970000000    -0.165034   
N135     N      0.330060000000     0.634180000000     0.485510000000    -0.163916   
N136     N      0.300920000000     0.667070000000     0.523560000000    -0.166726   
N137     N      0.227900000000     0.593040000000     0.081720000000    -0.168643   
N138     N      0.222630000000     0.634210000000     0.128840000000    -0.166596   
N139     N      0.213860000000     0.901840000000     0.110030000000    -0.166146   
N140     N      0.215410000000     0.823380000000     0.129720000000    -0.166607   
N141     N      0.304840000000     0.880830000000     0.970740000000    -0.165731   
N142     N      0.275500000000     0.907600000000     0.011020000000    -0.165356   
N143     N      0.193260000000     0.684390000000     0.560360000000    -0.166331   
N144     N      0.193570000000     0.617550000000     0.593210000000    -0.16965    
N145     N      0.236640000000     0.909200000000     0.601150000000    -0.166509   
N146     N      0.254360000000     0.851870000000     0.566100000000    -0.164858   
N147     N      0.329990000000     0.705240000000     0.816370000000    -0.167562   
N148     N      0.339800000000     0.756960000000     0.858350000000    -0.167088   
N149     N      0.349340000000     0.946800000000     0.878290000000    -0.163873   
N150     N      0.349520000000     0.001470000000     0.837030000000    -0.165421   
N151     N      0.264150000000     0.039340000000     0.704700000000    -0.165114   
N152     N      0.294710000000     0.575850000000     0.721190000000    -0.16589    
N153     N      0.784040000000     0.100810000000     0.218710000000    -0.16607    
N154     N      0.776820000000     0.631480000000     0.260140000000    -0.166562   
N155     N      0.705290000000     0.666400000000     0.137730000000    -0.165864   
N156     N      0.729950000000     0.712620000000     0.101540000000    -0.163452   
N157     N      0.755740000000     0.961930000000     0.122360000000    -0.168967   
N158     N      0.776020000000     0.896900000000     0.096030000000    -0.164509   
N159     N      0.809600000000     0.739310000000     0.015580000000    -0.167515   
N160     N      0.846500000000     0.690920000000     0.998030000000    -0.165533   
N161     N      0.800640000000     0.759190000000     0.363130000000    -0.166315   
N162     N      0.785780000000     0.818610000000     0.397480000000    -0.165895   
N163     N      0.841660000000     0.990660000000     0.367240000000    -0.166206   
N164     N      0.846770000000     0.070100000000     0.350640000000    -0.167318   
N165     N      0.750000000000     0.053900000000     0.489220000000    -0.166719   
N166     N      0.778540000000     0.991340000000     0.471440000000    -0.168145   
N167     N      0.712750000000     0.969580000000     0.585340000000    -0.166093   
N168     N      0.715060000000     0.914930000000     0.626660000000    -0.166357   
N169     N      0.740770000000     0.712980000000     0.641370000000    -0.167039   
N170     N      0.733390000000     0.649460000000     0.606160000000    -0.16706    
N171     N      0.807560000000     0.022050000000     0.870960000000    -0.165716   
N172     N      0.828310000000     0.089740000000     0.893700000000    -0.165595   
N173     N      0.861800000000     0.760420000000     0.886960000000    -0.16595    
N174     N      0.853680000000     0.840070000000     0.871540000000    -0.165247   
N175     N      0.756320000000     0.856340000000     0.735260000000    -0.167021   
N176     N      0.777490000000     0.874720000000     0.782740000000    -0.166735   
N177     N      0.155850000000     0.850430000000     0.583060000000    -0.0977961  
N178     N      0.195400000000     0.804700000000     0.581930000000    -0.0980448  
N179     N      0.957960000000     0.585820000000     0.875180000000    -0.100166   
N180     N      0.927430000000     0.596410000000     0.835150000000    -0.0999936  
N181     N      0.040010000000     0.708670000000     0.738130000000    -0.16756    
N182     N      0.068630000000     0.764140000000     0.712300000000    -0.165695   
N183     N      0.871580000000     0.878180000000     0.320020000000    -0.0986656  
N184     N      0.835130000000     0.879750000000     0.353990000000    -0.104199   
N185     N      0.162300000000     0.981740000000     0.096430000000    -0.0925188  
N186     N      0.122940000000     0.024410000000     0.108190000000    -0.106437   
N187     N      0.999390000000     0.940970000000     0.254840000000    -0.16541    
N188     N      0.025780000000     0.945480000000     0.209110000000    -0.168203   
N189     N      0.138460000000     0.677160000000     0.107710000000    -0.106237   
N190     N      0.160680000000     0.749710000000     0.103350000000    -0.0947653  
N191     N      0.091410000000     0.584320000000     0.114310000000    -0.166005   
N192     N      0.082210000000     0.640820000000     0.075000000000    -0.167144   
N193     N      0.091650000000     0.885630000000     0.112950000000    -0.165679   
N194     N      0.108050000000     0.841390000000     0.070720000000    -0.165615   
N195     N      0.919520000000     0.973870000000     0.897730000000    -0.104547   
N196     N      0.880750000000     0.939870000000     0.876080000000    -0.0997725  
N197     N      0.944320000000     0.787430000000     0.871160000000    -0.166723   
N198     N      0.970120000000     0.738950000000     0.837650000000    -0.166278   
N199     N      0.991370000000     0.973890000000     0.882220000000    -0.165517   
N200     N      0.981540000000     0.033200000000     0.845110000000    -0.167009   
N201     N      0.016430000000     0.823940000000     0.963110000000    -0.166468   
N202     N      0.048740000000     0.765000000000     0.978130000000    -0.166321   
N203     N      0.916990000000     0.718180000000     0.374900000000    -0.110226   
N204     N      0.884440000000     0.743000000000     0.339750000000    -0.1067     
N205     N      0.953400000000     0.796630000000     0.415900000000    -0.166406   
N206     N      0.950240000000     0.840940000000     0.369800000000    -0.167      
N207     N      0.954640000000     0.108650000000     0.360800000000    -0.166598   
N208     N      0.950490000000     0.027340000000     0.347040000000    -0.166127   
N209     N      0.149450000000     0.023580000000     0.593920000000    -0.0958545  
N210     N      0.156600000000     0.945530000000     0.579150000000    -0.102337   
N211     N      0.110250000000     0.670320000000     0.618110000000    -0.165673   
N212     N      0.108540000000     0.594530000000     0.594500000000    -0.164457   
N213     N      0.093400000000     0.869150000000     0.605610000000    -0.164682   
N214     N      0.068740000000     0.917760000000     0.570750000000    -0.166409   
N215     N      0.013700000000     0.087170000000     0.520180000000    -0.167321   
N216     N      0.981980000000     0.622980000000     0.495670000000    -0.166914   
N217     N      0.687850000000     0.784930000000     0.109010000000    -0.0964818  
N218     N      0.674800000000     0.858170000000     0.089650000000    -0.100485   
N219     N      0.455870000000     0.601460000000     0.345390000000    -0.103297   
N220     N      0.424250000000     0.567650000000     0.378390000000    -0.100714   
N221     N      0.573010000000     0.721540000000     0.210750000000    -0.166205   
N222     N      0.554970000000     0.692960000000     0.257790000000    -0.166044   
N223     N      0.662760000000     0.800270000000     0.610190000000    -0.0885968  
N224     N      0.697470000000     0.771430000000     0.579030000000    -0.101072   
N225     N      0.457740000000     0.882030000000     0.349840000000    -0.10421    
N226     N      0.421850000000     0.851610000000     0.320970000000    -0.096963   
N227     N      0.491850000000     0.734340000000     0.371280000000    -0.166648   
N228     N      0.479120000000     0.810270000000     0.390230000000    -0.165746   
N229     N      0.475060000000     0.000240000000     0.384730000000    -0.166252   
N230     N      0.484820000000     0.039710000000     0.337950000000    -0.16635    
N231     N      0.544580000000     0.833660000000     0.518370000000    -0.165893   
N232     N      0.507050000000     0.878510000000     0.498810000000    -0.1658     
N233     N      0.641840000000     0.092090000000     0.594080000000    -0.0949972  
N234     N      0.662550000000     0.090800000000     0.641670000000    -0.0989346  
N235     N      0.586860000000     0.634210000000     0.650940000000    -0.164938   
N236     N      0.582520000000     0.711720000000     0.629670000000    -0.165837   
N237     N      0.602260000000     0.965870000000     0.637540000000    -0.165229   
N238     N      0.600520000000     0.887300000000     0.617870000000    -0.165084   
N239     N      0.417850000000     0.828390000000     0.809930000000    -0.0982298  
N240     N      0.384280000000     0.866880000000     0.838200000000    -0.0951744  
N241     N      0.568030000000     0.004120000000     0.752390000000    -0.168066   
N242     N      0.531770000000     0.947780000000     0.756020000000    -0.165761   
N243     N      0.698060000000     0.034790000000     0.106030000000    -0.100267   
N244     N      0.687080000000     0.993670000000     0.061970000000    -0.105526   
N245     N      0.617510000000     0.603470000000     0.070870000000    -0.164441   
N246     N      0.614750000000     0.682910000000     0.088520000000    -0.167029   
N247     N      0.599180000000     0.865630000000     0.124510000000    -0.166405   
N248     N      0.611230000000     0.925580000000     0.088680000000    -0.166064   
N249     N      0.427420000000     0.659530000000     0.815970000000    -0.10367    
N250     N      0.395480000000     0.629030000000     0.849990000000    -0.0972255  
N251     N      0.452390000000     0.928320000000     0.837280000000    -0.167791   
N252     N      0.462930000000     0.998470000000     0.864620000000    -0.167621   
N253     N      0.488380000000     0.712610000000     0.853070000000    -0.167035   
N254     N      0.487170000000     0.758220000000     0.807550000000    -0.164987   
N255     N      0.562420000000     0.060100000000     0.997240000000    -0.164861   
N256     N      0.544190000000     0.550820000000     0.929810000000    -0.16564    
O1       O      0.467720000000     0.162540000000     0.900030000000    -0.509241   
O2       O      0.491120000000     0.128230000000     0.876660000000    -0.49802    
O3       O      0.489910000000     0.062710000000     0.945090000000    -0.496955   
O4       O      0.454660000000     0.126020000000     0.945590000000    -0.472099   
O5       O      0.480160000000     0.031120000000     0.899210000000    -0.505563   
O6       O      0.434680000000     0.086950000000     0.921770000000    -0.477526   
O7       O      0.511430000000     0.104580000000     0.924680000000    -0.499802   
O8       O      0.455430000000     0.064460000000     0.876950000000    -0.503775   
O9       O      0.636140000000     0.064530000000     0.073020000000    -0.489016   
O10      O      0.599420000000     0.547570000000     0.053120000000    -0.510862   
O11      O      0.606560000000     0.538720000000     0.995530000000    -0.513372   
O12      O      0.634830000000     0.448050000000     0.006160000000    -0.491001   
O13      O      0.628640000000     0.474160000000     0.068460000000    -0.522744   
O14      O      0.654960000000     0.500770000000     0.012700000000    -0.469961   
O15      O      0.583610000000     0.490840000000     0.006600000000    -0.496438   
O16      O      0.598170000000     0.448620000000     0.051150000000    -0.492421   
O17      O      0.497080000000     0.289150000000     0.794800000000    -0.488837   
O18      O      0.472750000000     0.318150000000     0.819930000000    -0.516637   
O19      O      0.507620000000     0.339180000000     0.752870000000    -0.49402    
O20      O      0.455050000000     0.290870000000     0.759010000000    -0.488295   
O21      O      0.494640000000     0.396880000000     0.795050000000    -0.507655   
O22      O      0.436190000000     0.344190000000     0.767760000000    -0.473381   
O23      O      0.479920000000     0.379070000000     0.741970000000    -0.511329   
O24      O      0.457960000000     0.392690000000     0.802650000000    -0.494362   
O25      O      0.622040000000     0.486660000000     0.654100000000    -0.494248   
O26      O      0.589330000000     0.502910000000     0.637140000000    -0.516462   
O27      O      0.557590000000     0.503030000000     0.690940000000    -0.496406   
O28      O      0.599680000000     0.543190000000     0.720640000000    -0.483841   
O29      O      0.572290000000     0.571830000000     0.663460000000    -0.489817   
O30      O      0.629110000000     0.516010000000     0.702300000000    -0.467921   
O31      O      0.584270000000     0.458360000000     0.694860000000    -0.5122     
O32      O      0.608590000000     0.583410000000     0.669930000000    -0.509027   
O33      O      0.480750000000     0.433690000000     0.380960000000    -0.502273   
O34      O      0.500940000000     0.460010000000     0.411200000000    -0.492258   
O35      O      0.489270000000     0.376790000000     0.460400000000    -0.503316   
O36      O      0.458530000000     0.448400000000     0.441990000000    -0.483901   
O37      O      0.493150000000     0.338950000000     0.407910000000    -0.505857   
O38      O      0.443400000000     0.390990000000     0.435430000000    -0.47773    
O39      O      0.517880000000     0.393460000000     0.436030000000    -0.489122   
O40      O      0.463230000000     0.362690000000     0.388550000000    -0.48645    
O41      O      0.622250000000     0.328090000000     0.579980000000    -0.488149   
O42      O      0.588330000000     0.346060000000     0.567030000000    -0.507663   
O43      O      0.591480000000     0.300510000000     0.518020000000    -0.503354   
O44      O      0.615470000000     0.220840000000     0.546530000000    -0.487705   
O45      O      0.575760000000     0.234730000000     0.580500000000    -0.488997   
O46      O      0.636020000000     0.273600000000     0.542330000000    -0.47334    
O47      O      0.562570000000     0.283760000000     0.541890000000    -0.491648   
O48      O      0.599930000000     0.268570000000     0.603270000000    -0.504392   
O49      O      0.468570000000     0.088500000000     0.311380000000    -0.507719   
O50      O      0.504380000000     0.095650000000     0.321840000000    -0.492469   
O51      O      0.509160000000     0.200180000000     0.284650000000    -0.51145    
O52      O      0.481300000000     0.119490000000     0.256760000000    -0.480034   
O53      O      0.490690000000     0.171930000000     0.337870000000    -0.508049   
O54      O      0.454090000000     0.154650000000     0.273280000000    -0.461856   
O55      O      0.524670000000     0.141990000000     0.280600000000    -0.4951     
O56      O      0.464130000000     0.196450000000     0.313430000000    -0.480037   
O57      O      0.638650000000     0.227640000000     0.151800000000    -0.485014   
O58      O      0.604720000000     0.243600000000     0.138100000000    -0.501196   
O59      O      0.602760000000     0.223310000000     0.196980000000    -0.509662   
O60      O      0.637960000000     0.290820000000     0.211300000000    -0.475892   
O61      O      0.624470000000     0.343290000000     0.164440000000    -0.507035   
O62      O      0.657830000000     0.282010000000     0.176940000000    -0.467678   
O63      O      0.587440000000     0.281310000000     0.202650000000    -0.503623   
O64      O      0.594080000000     0.315750000000     0.148640000000    -0.490851   
O65      O      0.099560000000     0.080150000000     0.545710000000    -0.491955   
O66      O      0.079850000000     0.545440000000     0.592360000000    -0.490097   
O67      O      0.041060000000     0.579360000000     0.552580000000    -0.508794   
O68      O      0.068870000000     0.520090000000     0.510950000000    -0.47861    
O69      O      0.053770000000     0.489080000000     0.592720000000    -0.488438   
O70      O      0.093880000000     0.490150000000     0.534420000000    -0.475608   
O71      O      0.025000000000     0.524180000000     0.541350000000    -0.505483   
O72      O      0.057960000000     0.453330000000     0.558740000000    -0.496783   
O73      O      0.958340000000     0.253250000000     0.427440000000    -0.502418   
O74      O      0.979410000000     0.223090000000     0.399500000000    -0.503783   
O75      O      0.962620000000     0.128660000000     0.447070000000    -0.499673   
O76      O      0.923510000000     0.179580000000     0.452220000000    -0.476101   
O77      O      0.972360000000     0.143480000000     0.394200000000    -0.497019   
O78      O      0.916430000000     0.208540000000     0.416440000000    -0.474954   
O79      O      0.979120000000     0.184160000000     0.457380000000    -0.503535   
O80      O      0.935650000000     0.151700000000     0.389190000000    -0.498985   
O81      O      0.012800000000     0.428580000000     0.858070000000    -0.50302    
O82      O      0.023560000000     0.462180000000     0.891060000000    -0.494324   
O83      O      0.002710000000     0.364260000000     0.934270000000    -0.509588   
O84      O      0.984810000000     0.450240000000     0.924520000000    -0.476716   
O85      O      0.014820000000     0.350350000000     0.873890000000    -0.500267   
O86      O      0.963050000000     0.419210000000     0.897950000000    -0.469547   
O87      O      0.035190000000     0.388170000000     0.921090000000    -0.501918   
O88      O      0.977870000000     0.360110000000     0.876420000000    -0.482281   
O89      O      0.112920000000     0.275000000000     0.072760000000    -0.48345    
O90      O      0.078880000000     0.293200000000     0.060100000000    -0.505727   
O91      O      0.092880000000     0.268880000000     0.004810000000    -0.509151   
O92      O      0.114780000000     0.183000000000     0.025360000000    -0.481272   
O93      O      0.072760000000     0.176740000000     0.050850000000    -0.491216   
O94      O      0.133220000000     0.236410000000     0.034930000000    -0.469095   
O95      O      0.060690000000     0.244840000000     0.018830000000    -0.495608   
O96      O      0.085410000000     0.209450000000     0.083490000000    -0.509208   
O97      O      0.111780000000     0.430750000000     0.159100000000    -0.493579   
O98      O      0.079270000000     0.449340000000     0.142610000000    -0.505006   
O99      O      0.061920000000     0.503370000000     0.185220000000    -0.498598   
O100     O      0.120670000000     0.530230000000     0.197410000000    -0.479112   
O101     O      0.102950000000     0.520640000000     0.127490000000    -0.511615   
O102     O      0.138570000000     0.492550000000     0.170840000000    -0.472498   
O103     O      0.086390000000     0.468560000000     0.207030000000    -0.504493   
O104     O      0.086140000000     0.557880000000     0.155470000000    -0.49484    
O105     O      0.983230000000     0.383850000000     0.326670000000    -0.489416   
O106     O      0.960830000000     0.414330000000     0.353240000000    -0.504309   
O107     O      0.004670000000     0.444710000000     0.301810000000    -0.494421   
O108     O      0.932510000000     0.451140000000     0.289060000000    -0.470725   
O109     O      0.977010000000     0.501650000000     0.333160000000    -0.504365   
O110     O      0.947910000000     0.393130000000     0.289550000000    -0.487476   
O111     O      0.980270000000     0.476720000000     0.278210000000    -0.508057   
O112     O      0.941560000000     0.482550000000     0.337730000000    -0.486946   
O113     O      0.986970000000     0.061930000000     0.804530000000    -0.493257   
O114     O      0.970820000000     0.098040000000     0.833660000000    -0.512156   
O115     O      0.985000000000     0.154990000000     0.754870000000    -0.513191   
O116     O      0.950570000000     0.084700000000     0.772100000000    -0.479681   
O117     O      0.960770000000     0.179350000000     0.817580000000    -0.488245   
O118     O      0.939430000000     0.144900000000     0.779050000000    -0.46893    
O119     O      0.012230000000     0.124540000000     0.775210000000    -0.494931   
O120     O      0.997890000000     0.171610000000     0.816190000000    -0.509612   
O121     O      0.095540000000     0.194740000000     0.657470000000    -0.497922   
O122     O      0.108840000000     0.232680000000     0.627430000000    -0.477963   
O123     O      0.089340000000     0.230380000000     0.703910000000    -0.498788   
O124     O      0.121820000000     0.301420000000     0.692090000000    -0.47663    
O125     O      0.085540000000     0.292160000000     0.628480000000    -0.486745   
O126     O      0.138610000000     0.258130000000     0.668630000000    -0.48689    
O127     O      0.061130000000     0.252920000000     0.681060000000    -0.504035   
O128     O      0.084040000000     0.327150000000     0.663020000000    -0.493367   
O129     O      0.838720000000     0.450370000000     0.842760000000    -0.491486   
O130     O      0.853890000000     0.484750000000     0.812080000000    -0.505712   
O131     O      0.826060000000     0.360690000000     0.802280000000    -0.502623   
O132     O      0.845540000000     0.431660000000     0.762430000000    -0.481654   
O133     O      0.871990000000     0.399070000000     0.840290000000    -0.498711   
O134     O      0.879700000000     0.431630000000     0.778240000000    -0.473411   
O135     O      0.809140000000     0.417990000000     0.801850000000    -0.500353   
O136     O      0.870860000000     0.358800000000     0.808050000000    -0.493391   
O137     O      0.702850000000     0.351080000000     0.666330000000    -0.498546   
O138     O      0.739890000000     0.355010000000     0.670670000000    -0.496282   
O139     O      0.729880000000     0.346870000000     0.724340000000    -0.499135   
O140     O      0.690880000000     0.294320000000     0.720130000000    -0.476813   
O141     O      0.743240000000     0.275150000000     0.658910000000    -0.504084   
O142     O      0.684040000000     0.282340000000     0.680530000000    -0.46921    
O143     O      0.748130000000     0.290740000000     0.723210000000    -0.502417   
O144     O      0.728260000000     0.235490000000     0.686820000000    -0.503168   
O145     O      0.853520000000     0.343290000000     0.430170000000    -0.497669   
O146     O      0.830250000000     0.372600000000     0.404110000000    -0.477985   
O147     O      0.840340000000     0.457050000000     0.465600000000    -0.50854    
O148     O      0.876520000000     0.394200000000     0.464330000000    -0.471828   
O149     O      0.833850000000     0.442990000000     0.397940000000    -0.488721   
O150     O      0.889590000000     0.409510000000     0.427020000000    -0.472232   
O151     O      0.816510000000     0.409260000000     0.458020000000    -0.510586   
O152     O      0.865080000000     0.468660000000     0.413290000000    -0.487854   
O153     O      0.705890000000     0.500720000000     0.576870000000    -0.493709   
O154     O      0.742630000000     0.508130000000     0.583250000000    -0.503389   
O155     O      0.733970000000     0.512140000000     0.523540000000    -0.510958   
O156     O      0.705620000000     0.593210000000     0.526770000000    -0.483743   
O157     O      0.718850000000     0.586270000000     0.595780000000    -0.511858   
O158     O      0.685040000000     0.550360000000     0.546890000000    -0.469399   
O159     O      0.759910000000     0.553590000000     0.536820000000    -0.494631   
O160     O      0.739990000000     0.615590000000     0.567520000000    -0.494562   
O161     O      0.847770000000     0.121770000000     0.927220000000    -0.505379   
O162     O      0.838220000000     0.157560000000     0.894520000000    -0.486593   
O163     O      0.848580000000     0.227150000000     0.961350000000    -0.49411    
O164     O      0.878990000000     0.160800000000     0.961380000000    -0.471304   
O165     O      0.870340000000     0.211030000000     0.886740000000    -0.490632   
O166     O      0.897710000000     0.167270000000     0.926230000000    -0.482775   
O167     O      0.821560000000     0.205820000000     0.936470000000    -0.507259   
O168     O      0.871820000000     0.252420000000     0.918300000000    -0.503347   
O169     O      0.716530000000     0.267440000000     0.056310000000    -0.493538   
O170     O      0.753220000000     0.273030000000     0.063210000000    -0.507351   
O171     O      0.743480000000     0.307300000000     0.005240000000    -0.509531   
O172     O      0.715450000000     0.379360000000     0.025390000000    -0.487783   
O173     O      0.751550000000     0.381810000000     0.066840000000    -0.497291   
O174     O      0.695190000000     0.328650000000     0.036520000000    -0.471427   
O175     O      0.770690000000     0.333010000000     0.028240000000    -0.496212   
O176     O      0.729270000000     0.343710000000     0.089110000000    -0.518411   
O177     O      0.754540000000     0.113760000000     0.141450000000    -0.501741   
O178     O      0.693330000000     0.599880000000     0.141980000000    -0.49515    
O179     O      0.708550000000     0.584790000000     0.217690000000    -0.489421   
O180     O      0.673220000000     0.534850000000     0.204150000000    -0.469968   
O181     O      0.725450000000     0.531810000000     0.146080000000    -0.505807   
O182     O      0.662160000000     0.562060000000     0.169150000000    -0.477117   
O183     O      0.735790000000     0.550970000000     0.199430000000    -0.504749   
O184     O      0.704050000000     0.491890000000     0.168100000000    -0.508267   
O185     O      0.843970000000     0.224590000000     0.318110000000    -0.491827   
O186     O      0.869330000000     0.197860000000     0.343100000000    -0.506123   
O187     O      0.853460000000     0.131640000000     0.267600000000    -0.505793   
O188     O      0.888170000000     0.207680000000     0.283670000000    -0.490155   
O189     O      0.872560000000     0.116690000000     0.333280000000    -0.49699    
O190     O      0.899170000000     0.148000000000     0.292200000000    -0.47814    
O191     O      0.830550000000     0.179730000000     0.278560000000    -0.489356   
O192     O      0.836970000000     0.119330000000     0.320930000000    -0.511401   
O193     O      0.324520000000     0.163440000000     0.808490000000    -0.495791   
O194     O      0.348320000000     0.136030000000     0.834890000000    -0.50528    
O195     O      0.333550000000     0.070260000000     0.758890000000    -0.507386   
O196     O      0.359360000000     0.151730000000     0.767690000000    -0.484913   
O197     O      0.365290000000     0.058300000000     0.817460000000    -0.483769   
O198     O      0.380880000000     0.103160000000     0.779840000000    -0.468843   
O199     O      0.305900000000     0.098390000000     0.780030000000    -0.491098   
O200     O      0.328160000000     0.050870000000     0.816240000000    -0.508545   
O201     O      0.199800000000     0.043430000000     0.621220000000    -0.478711   
O202     O      0.197300000000     0.588670000000     0.633680000000    -0.509081   
O203     O      0.218480000000     0.545630000000     0.680220000000    -0.493421   
O204     O      0.186590000000     0.487730000000     0.675610000000    -0.472245   
O205     O      0.229480000000     0.474470000000     0.625440000000    -0.486712   
O206     O      0.165000000000     0.526460000000     0.653150000000    -0.476863   
O207     O      0.242360000000     0.536300000000     0.649070000000    -0.492945   
O208     O      0.192970000000     0.463500000000     0.621300000000    -0.509351   
O209     O      0.361020000000     0.312350000000     0.897370000000    -0.501269   
O210     O      0.336260000000     0.339790000000     0.872080000000    -0.481516   
O211     O      0.335580000000     0.431830000000     0.921280000000    -0.508856   
O212     O      0.377150000000     0.373670000000     0.937930000000    -0.479733   
O213     O      0.347240000000     0.405290000000     0.860600000000    -0.487102   
O214     O      0.395410000000     0.374990000000     0.902130000000    -0.477887   
O215     O      0.323460000000     0.371880000000     0.927340000000    -0.507855   
O216     O      0.371570000000     0.438310000000     0.883670000000    -0.491708   
O217     O      0.205790000000     0.446780000000     0.062920000000    -0.488823   
O218     O      0.242660000000     0.450350000000     0.069180000000    -0.507067   
O219     O      0.247570000000     0.440320000000     0.017190000000    -0.508436   
O220     O      0.211780000000     0.520330000000     0.001650000000    -0.479543   
O221     O      0.246590000000     0.539520000000     0.061340000000    -0.49518    
O222     O      0.193660000000     0.470080000000     0.017470000000    -0.469682   
O223     O      0.260570000000     0.500470000000     0.013300000000    -0.494899   
O224     O      0.209740000000     0.544450000000     0.056750000000    -0.523897   
O225     O      0.381680000000     0.056220000000     0.400210000000    -0.51844    
O226     O      0.346190000000     0.049310000000     0.412200000000    -0.490429   
O227     O      0.335020000000     0.095900000000     0.456160000000    -0.494338   
O228     O      0.383550000000     0.057620000000     0.463420000000    -0.489192   
O229     O      0.351810000000     0.135880000000     0.400120000000    -0.51521    
O230     O      0.406660000000     0.099430000000     0.445600000000    -0.475707   
O231     O      0.356630000000     0.148340000000     0.459140000000    -0.51267    
O232     O      0.386080000000     0.153380000000     0.412320000000    -0.489422   
O233     O      0.205100000000     0.210170000000     0.550890000000    -0.491746   
O234     O      0.234800000000     0.229010000000     0.572990000000    -0.513557   
O235     O      0.271930000000     0.244630000000     0.525490000000    -0.49469    
O236     O      0.232120000000     0.273460000000     0.489450000000    -0.48826    
O237     O      0.247720000000     0.310700000000     0.547190000000    -0.490932   
O238     O      0.203400000000     0.237770000000     0.501810000000    -0.473189   
O239     O      0.250720000000     0.191740000000     0.522200000000    -0.512251   
O240     O      0.210620000000     0.304880000000     0.544560000000    -0.518153   
O241     O      0.242540000000     0.279660000000     0.135880000000    -0.511533   
O242     O      0.205250000000     0.279260000000     0.137030000000    -0.49358    
O243     O      0.243300000000     0.289020000000     0.189210000000    -0.505673   
O244     O      0.191670000000     0.260510000000     0.185720000000    -0.474977   
O245     O      0.207950000000     0.186210000000     0.145320000000    -0.516324   
O246     O      0.208540000000     0.208650000000     0.201080000000    -0.482865   
O247     O      0.259550000000     0.230900000000     0.188880000000    -0.491779   
O248     O      0.245190000000     0.187050000000     0.146100000000    -0.494426   
O249     O      0.360720000000     0.416270000000     0.308780000000    -0.507345   
O250     O      0.335730000000     0.388350000000     0.333450000000    -0.503872   
O251     O      0.338620000000     0.298870000000     0.278370000000    -0.502401   
O252     O      0.376850000000     0.366040000000     0.268830000000    -0.476902   
O253     O      0.339120000000     0.298850000000     0.329250000000    -0.50197    
O254     O      0.392860000000     0.329220000000     0.297340000000    -0.470971   
O255     O      0.321470000000     0.356060000000     0.279390000000    -0.505394   
O256     O      0.373230000000     0.320310000000     0.339190000000    -0.489766   
O257     O      0.508000000000     0.662360000000     0.875690000000    -0.490859   
O258     O      0.470880000000     0.657950000000     0.872870000000    -0.523879   
O259     O      0.505750000000     0.554350000000     0.916160000000    -0.5109     
O260     O      0.481280000000     0.640960000000     0.931720000000    -0.486246   
O261     O      0.500290000000     0.573060000000     0.857670000000    -0.513807   
O262     O      0.456610000000     0.597720000000     0.918430000000    -0.47138    
O263     O      0.527710000000     0.605000000000     0.908030000000    -0.49542    
O264     O      0.465750000000     0.563490000000     0.872110000000    -0.499643   
O265     O      0.636110000000     0.554840000000     0.046070000000    -0.490746   
O266     O      0.600170000000     0.076810000000     0.065130000000    -0.507539   
O267     O      0.601390000000     0.062300000000     0.009480000000    -0.50286    
O268     O      0.639440000000     0.987160000000     0.014830000000    -0.484215   
O269     O      0.624750000000     0.989840000000     0.079700000000    -0.506849   
O270     O      0.651180000000     0.046440000000     0.022770000000    -0.477331   
O271     O      0.579170000000     0.020890000000     0.029460000000    -0.491923   
O272     O      0.603550000000     0.961500000000     0.051070000000    -0.488191   
O273     O      0.465120000000     0.809150000000     0.789180000000    -0.50794    
O274     O      0.502150000000     0.817670000000     0.790550000000    -0.487105   
O275     O      0.517870000000     0.884200000000     0.766870000000    -0.493761   
O276     O      0.478440000000     0.847810000000     0.732730000000    -0.48776    
O277     O      0.477950000000     0.883770000000     0.817930000000    -0.513962   
O278     O      0.446500000000     0.867360000000     0.749370000000    -0.47459    
O279     O      0.493000000000     0.931980000000     0.763870000000    -0.509782   
O280     O      0.452690000000     0.912440000000     0.793640000000    -0.489813   
O281     O      0.623270000000     0.010390000000     0.663180000000    -0.484634   
O282     O      0.586350000000     0.006930000000     0.669030000000    -0.499306   
O283     O      0.576150000000     0.054530000000     0.722600000000    -0.507608   
O284     O      0.632230000000     0.077080000000     0.723460000000    -0.472495   
O285     O      0.584580000000     0.086370000000     0.663370000000    -0.501437   
O286     O      0.646380000000     0.046280000000     0.690900000000    -0.456851   
O287     O      0.599850000000     0.004950000000     0.724890000000    -0.511827   
O288     O      0.607830000000     0.121040000000     0.686400000000    -0.500101   
O289     O      0.453560000000     0.949650000000     0.404340000000    -0.515058   
O290     O      0.488250000000     0.959280000000     0.418130000000    -0.489684   
O291     O      0.475530000000     0.868630000000     0.471520000000    -0.510871   
O292     O      0.444740000000     0.947090000000     0.463790000000    -0.483329   
O293     O      0.490010000000     0.869530000000     0.410480000000    -0.513106   
O294     O      0.427470000000     0.899480000000     0.443810000000    -0.470216   
O295     O      0.497250000000     0.919840000000     0.464260000000    -0.493904   
O296     O      0.455100000000     0.848980000000     0.416540000000    -0.494439   
O297     O      0.614990000000     0.839610000000     0.589210000000    -0.491076   
O298     O      0.578280000000     0.838870000000     0.597180000000    -0.51296    
O299     O      0.580300000000     0.835420000000     0.539320000000    -0.511436   
O300     O      0.606190000000     0.738750000000     0.544940000000    -0.490802   
O301     O      0.570190000000     0.744040000000     0.592220000000    -0.490459   
O302     O      0.627320000000     0.791070000000     0.548180000000    -0.478211   
O303     O      0.557060000000     0.787320000000     0.549090000000    -0.495006   
O304     O      0.604780000000     0.756300000000     0.605760000000    -0.51575    
O305     O      0.498960000000     0.595260000000     0.306520000000    -0.489749   
O306     O      0.519120000000     0.622270000000     0.336600000000    -0.504453   
O307     O      0.528480000000     0.708310000000     0.290160000000    -0.49211    
O308     O      0.479060000000     0.700690000000     0.278460000000    -0.48163    
O309     O      0.514410000000     0.708080000000     0.338230000000    -0.493669   
O310     O      0.464910000000     0.646220000000     0.293040000000    -0.46912    
O311     O      0.527980000000     0.648340000000     0.275220000000    -0.505073   
O312     O      0.478750000000     0.689310000000     0.340200000000    -0.504136   
O313     O      0.634740000000     0.722610000000     0.118030000000    -0.508026   
O314     O      0.597940000000     0.715650000000     0.123320000000    -0.490679   
O315     O      0.595630000000     0.708270000000     0.174640000000    -0.496337   
O316     O      0.645650000000     0.723420000000     0.177230000000    -0.480105   
O317     O      0.618300000000     0.824140000000     0.153790000000    -0.493042   
O318     O      0.655770000000     0.775280000000     0.156010000000    -0.4711     
O319     O      0.595490000000     0.768710000000     0.188750000000    -0.50469    
O320     O      0.597500000000     0.795910000000     0.124740000000    -0.504629   
O321     O      0.092000000000     0.570250000000     0.556720000000    -0.500112   
O322     O      0.087390000000     0.042870000000     0.576600000000    -0.500745   
O323     O      0.052400000000     0.085000000000     0.533040000000    -0.507977   
O324     O      0.076810000000     0.020810000000     0.491660000000    -0.479366   
O325     O      0.060500000000     0.985940000000     0.567320000000    -0.491604   
O326     O      0.108730000000     0.019440000000     0.512600000000    -0.4742     
O327     O      0.036070000000     0.029070000000     0.523720000000    -0.500683   
O328     O      0.081260000000     0.959390000000     0.537560000000    -0.503705   
O329     O      0.929130000000     0.748850000000     0.434430000000    -0.505936   
O330     O      0.964740000000     0.732480000000     0.428610000000    -0.490096   
O331     O      0.953060000000     0.626300000000     0.464460000000    -0.513123   
O332     O      0.919020000000     0.701510000000     0.481070000000    -0.476867   
O333     O      0.957280000000     0.661490000000     0.407900000000    -0.499968   
O334     O      0.900240000000     0.677060000000     0.449140000000    -0.463545   
O335     O      0.968630000000     0.681790000000     0.476220000000    -0.499299   
O336     O      0.922730000000     0.640650000000     0.415960000000    -0.485663   
O337     O      0.984260000000     0.905480000000     0.886850000000    -0.491119   
O338     O      0.972010000000     0.944490000000     0.916790000000    -0.498386   
O339     O      0.977540000000     0.838540000000     0.954780000000    -0.49374    
O340     O      0.947320000000     0.907550000000     0.955670000000    -0.470424   
O341     O      0.950090000000     0.854620000000     0.881640000000    -0.497893   
O342     O      0.924920000000     0.886920000000     0.925800000000    -0.486009   
O343     O      0.003000000000     0.864070000000     0.929570000000    -0.506203   
O344     O      0.956030000000     0.810830000000     0.911230000000    -0.502754   
O345     O      0.117180000000     0.774470000000     0.062280000000    -0.487119   
O346     O      0.092180000000     0.803230000000     0.037740000000    -0.506783   
O347     O      0.087470000000     0.763020000000     0.991090000000    -0.495646   
O348     O      0.122350000000     0.705770000000     0.998230000000    -0.466702   
O349     O      0.098910000000     0.669350000000     0.038570000000    -0.508237   
O350     O      0.140260000000     0.743410000000     0.024810000000    -0.474757   
O351     O      0.062240000000     0.735800000000     0.016030000000    -0.503244   
O352     O      0.083730000000     0.709340000000     0.066070000000    -0.502642   
O353     O      0.100430000000     0.920420000000     0.150650000000    -0.490608   
O354     O      0.072350000000     0.942550000000     0.127430000000    -0.491659   
O355     O      0.045250000000     0.989680000000     0.181860000000    -0.510024   
O356     O      0.101550000000     0.992630000000     0.200970000000    -0.47905    
O357     O      0.071030000000     0.011610000000     0.126680000000    -0.483598   
O358     O      0.121090000000     0.987270000000     0.166240000000    -0.47517    
O359     O      0.062220000000     0.934330000000     0.190960000000    -0.507143   
O360     O      0.081780000000     0.047300000000     0.158850000000    -0.49706    
O361     O      0.966880000000     0.871420000000     0.333770000000    -0.493081   
O362     O      0.932470000000     0.889740000000     0.344470000000    -0.514607   
O363     O      0.982640000000     0.902700000000     0.287600000000    -0.491283   
O364     O      0.912960000000     0.926860000000     0.288910000000    -0.470029   
O365     O      0.967500000000     0.968430000000     0.332050000000    -0.508998   
O366     O      0.931250000000     0.872000000000     0.282940000000    -0.487809   
O367     O      0.964750000000     0.956180000000     0.275770000000    -0.508438   
O368     O      0.931150000000     0.977180000000     0.324240000000    -0.491879   
O369     O      0.002600000000     0.587070000000     0.787920000000    -0.499059   
O370     O      0.012580000000     0.624410000000     0.819700000000    -0.48022    
O371     O      0.002660000000     0.688160000000     0.749220000000    -0.504507   
O372     O      0.973130000000     0.618160000000     0.754990000000    -0.466132   
O373     O      0.984130000000     0.675720000000     0.826940000000    -0.49306    
O374     O      0.952930000000     0.643660000000     0.785190000000    -0.479206   
O375     O      0.030030000000     0.674420000000     0.775650000000    -0.508873   
O376     O      0.979230000000     0.717750000000     0.796090000000    -0.498089   
O377     O      0.108480000000     0.711810000000     0.654030000000    -0.499641   
O378     O      0.119390000000     0.738520000000     0.618510000000    -0.485836   
O379     O      0.106530000000     0.768330000000     0.696670000000    -0.498025   
O380     O      0.142920000000     0.823080000000     0.672260000000    -0.484695   
O381     O      0.113660000000     0.810050000000     0.614270000000    -0.487299   
O382     O      0.154880000000     0.765280000000     0.661340000000    -0.488955   
O383     O      0.078630000000     0.777630000000     0.669780000000    -0.494729   
O384     O      0.096400000000     0.838790000000     0.645850000000    -0.491884   
O385     O      0.822520000000     0.958150000000     0.864140000000    -0.495486   
O386     O      0.812980000000     0.992310000000     0.830790000000    -0.496756   
O387     O      0.814270000000     0.876670000000     0.801270000000    -0.506008   
O388     O      0.846320000000     0.942970000000     0.785280000000    -0.483452   
O389     O      0.825010000000     0.884110000000     0.857490000000    -0.494483   
O390     O      0.863800000000     0.963770000000     0.818800000000    -0.48027    
O391     O      0.792530000000     0.928340000000     0.806300000000    -0.499905   
O392     O      0.857730000000     0.885010000000     0.837490000000    -0.499133   
O393     O      0.697070000000     0.866820000000     0.652350000000    -0.496783   
O394     O      0.734030000000     0.862540000000     0.647670000000    -0.498143   
O395     O      0.725020000000     0.861880000000     0.707090000000    -0.502155   
O396     O      0.687900000000     0.806450000000     0.705320000000    -0.473804   
O397     O      0.736660000000     0.782630000000     0.642980000000    -0.495665   
O398     O      0.678540000000     0.798090000000     0.665900000000    -0.468234   
O399     O      0.746690000000     0.809930000000     0.703440000000    -0.505672   
O400     O      0.720830000000     0.748230000000     0.673080000000    -0.504135   
O401     O      0.807250000000     0.852090000000     0.428720000000    -0.502004   
O402     O      0.796510000000     0.885800000000     0.395680000000    -0.485836   
O403     O      0.813940000000     0.972270000000     0.453430000000    -0.506072   
O404     O      0.838400000000     0.899890000000     0.462930000000    -0.473862   
O405     O      0.813440000000     0.953530000000     0.388550000000    -0.496685   
O406     O      0.854370000000     0.885830000000     0.426820000000    -0.473571   
O407     O      0.784190000000     0.936180000000     0.444730000000    -0.512312   
O408     O      0.847630000000     0.954330000000     0.404920000000    -0.494068   
O409     O      0.694730000000     0.028120000000     0.571120000000    -0.493695   
O410     O      0.732050000000     0.025470000000     0.568960000000    -0.504103   
O411     O      0.716470000000     0.056090000000     0.514100000000    -0.512979   
O412     O      0.694470000000     0.137690000000     0.537850000000    -0.481524   
O413     O      0.716640000000     0.100110000000     0.597580000000    -0.513578   
O414     O      0.674220000000     0.087060000000     0.548850000000    -0.4638     
O415     O      0.746880000000     0.085060000000     0.529200000000    -0.495114   
O416     O      0.735340000000     0.136330000000     0.570510000000    -0.493189   
O417     O      0.868070000000     0.601940000000     0.924750000000    -0.487799   
O418     O      0.881190000000     0.634950000000     0.892470000000    -0.515015   
O419     O      0.877570000000     0.700430000000     0.969950000000    -0.504656   
O420     O      0.912730000000     0.627560000000     0.948190000000    -0.486785   
O421     O      0.889590000000     0.714760000000     0.901390000000    -0.493502   
O422     O      0.920490000000     0.687730000000     0.937380000000    -0.475228   
O423     O      0.853060000000     0.653930000000     0.960710000000    -0.493347   
O424     O      0.855410000000     0.711320000000     0.917940000000    -0.507741   
O425     O      0.731130000000     0.747050000000     0.062490000000    -0.493735   
O426     O      0.755360000000     0.764750000000     0.091810000000    -0.485994   
O427     O      0.771390000000     0.746130000000     0.029510000000    -0.507144   
O428     O      0.742040000000     0.818910000000     0.014120000000    -0.480618   
O429     O      0.768650000000     0.864760000000     0.057010000000    -0.495846   
O430     O      0.720400000000     0.826410000000     0.047010000000    -0.483167   
O431     O      0.795200000000     0.792610000000     0.040020000000    -0.503201   
O432     O      0.766080000000     0.829640000000     0.091530000000    -0.483739   
O433     O      0.712770000000     0.625710000000     0.173060000000    -0.504334   
O434     O      0.717330000000     0.108960000000     0.139690000000    -0.485598   
O435     O      0.748670000000     0.104570000000     0.196970000000    -0.499409   
O436     O      0.714950000000     0.044390000000     0.199030000000    -0.474267   
O437     O      0.748380000000     0.030340000000     0.126450000000    -0.504787   
O438     O      0.697530000000     0.054320000000     0.163460000000    -0.466429   
O439     O      0.772330000000     0.057830000000     0.185760000000    -0.502383   
O440     O      0.745340000000     0.994430000000     0.160360000000    -0.505344   
O441     O      0.804830000000     0.731580000000     0.322180000000    -0.488461   
O442     O      0.819400000000     0.699090000000     0.353970000000    -0.504006   
O443     O      0.814230000000     0.637040000000     0.276880000000    -0.507394   
O444     O      0.844950000000     0.721360000000     0.292980000000    -0.481379   
O445     O      0.844370000000     0.637000000000     0.344350000000    -0.490006   
O446     O      0.860750000000     0.664000000000     0.296830000000    -0.476307   
O447     O      0.786870000000     0.668310000000     0.296540000000    -0.498187   
O448     O      0.812360000000     0.611390000000     0.330600000000    -0.505932   
O449     O      0.346130000000     0.681900000000     0.778130000000    -0.507697   
O450     O      0.332290000000     0.637960000000     0.803940000000    -0.494722   
O451     O      0.333690000000     0.591190000000     0.727990000000    -0.495547   
O452     O      0.363320000000     0.654880000000     0.732820000000    -0.463787   
O453     O      0.372220000000     0.582460000000     0.795440000000    -0.491908   
O454     O      0.387700000000     0.619400000000     0.753840000000    -0.474552   
O455     O      0.309870000000     0.604600000000     0.758540000000    -0.500245   
O456     O      0.350050000000     0.547080000000     0.771170000000    -0.505691   
O457     O      0.197540000000     0.549000000000     0.601330000000    -0.507936   
O458     O      0.232420000000     0.060960000000     0.637840000000    -0.504594   
O459     O      0.226460000000     0.029690000000     0.689410000000    -0.500621   
O460     O      0.195710000000     0.955020000000     0.673980000000    -0.482046   
O461     O      0.235540000000     0.939790000000     0.641490000000    -0.492886   
O462     O      0.179190000000     0.009390000000     0.662780000000    -0.475998   
O463     O      0.254460000000     0.004480000000     0.667330000000    -0.490781   
O464     O      0.219300000000     0.970840000000     0.610230000000    -0.508048   
O465     O      0.334870000000     0.779690000000     0.900620000000    -0.491494   
O466     O      0.354390000000     0.816700000000     0.874810000000    -0.511001   
O467     O      0.341050000000     0.878760000000     0.950920000000    -0.510569   
O468     O      0.369010000000     0.795490000000     0.944090000000    -0.48552    
O469     O      0.332040000000     0.888500000000     0.893660000000    -0.506319   
O470     O      0.390080000000     0.838980000000     0.925180000000    -0.474147   
O471     O      0.315490000000     0.836310000000     0.938030000000    -0.493041   
O472     O      0.368830000000     0.895790000000     0.900170000000    -0.483431   
O473     O      0.200600000000     0.933020000000     0.072640000000    -0.488266   
O474     O      0.236210000000     0.942340000000     0.083460000000    -0.516974   
O475     O      0.237320000000     0.916900000000     0.024650000000    -0.508234   
O476     O      0.214150000000     0.001580000000     0.007660000000    -0.485943   
O477     O      0.243770000000     0.028850000000     0.060520000000    -0.49043    
O478     O      0.189400000000     0.961740000000     0.024760000000    -0.469235   
O479     O      0.261470000000     0.964880000000     0.031720000000    -0.492732   
O480     O      0.206740000000     0.027240000000     0.065510000000    -0.511576   
O481     O      0.367080000000     0.572120000000     0.383790000000    -0.499686   
O482     O      0.342530000000     0.548130000000     0.410780000000    -0.483157   
O483     O      0.337570000000     0.590120000000     0.451590000000    -0.487223   
O484     O      0.388440000000     0.536630000000     0.441740000000    -0.495702   
O485     O      0.359090000000     0.657000000000     0.414880000000    -0.500134   
O486     O      0.407960000000     0.590640000000     0.440970000000    -0.483248   
O487     O      0.363960000000     0.633350000000     0.461050000000    -0.494302   
O488     O      0.389150000000     0.632890000000     0.395710000000    -0.476663   
O489     O      0.216850000000     0.699550000000     0.525380000000    -0.489096   
O490     O      0.221730000000     0.733980000000     0.559810000000    -0.498939   
O491     O      0.285600000000     0.731530000000     0.528320000000    -0.493208   
O492     O      0.258390000000     0.762650000000     0.484550000000    -0.480383   
O493     O      0.259320000000     0.782790000000     0.560830000000    -0.487363   
O494     O      0.221950000000     0.764570000000     0.492150000000    -0.472516   
O495     O      0.261650000000     0.683120000000     0.522490000000    -0.504754   
O496     O      0.241850000000     0.814960000000     0.530690000000    -0.505389   
O497     O      0.234060000000     0.776270000000     0.155420000000    -0.510302   
O498     O      0.196840000000     0.773830000000     0.153770000000    -0.496523   
O499     O      0.230420000000     0.772610000000     0.209430000000    -0.505817   
O500     O      0.180240000000     0.740780000000     0.198330000000    -0.474167   
O501     O      0.201320000000     0.682750000000     0.150680000000    -0.516231   
O502     O      0.198070000000     0.687560000000     0.209850000000    -0.484221   
O503     O      0.249290000000     0.717590000000     0.203730000000    -0.490013   
O504     O      0.237840000000     0.679630000000     0.158650000000    -0.492099   
O505     O      0.371740000000     0.897340000000     0.315910000000    -0.507837   
O506     O      0.336210000000     0.888140000000     0.327130000000    -0.485841   
O507     O      0.333150000000     0.785910000000     0.285390000000    -0.512029   
O508     O      0.356530000000     0.875850000000     0.262080000000    -0.482733   
O509     O      0.353730000000     0.815260000000     0.340930000000    -0.512176   
O510     O      0.384180000000     0.836110000000     0.272280000000    -0.466585   
O511     O      0.314400000000     0.841240000000     0.289130000000    -0.499109   
O512     O      0.379420000000     0.792990000000     0.314570000000    -0.481123   


