data_structure

_audit_creation_method RASPA-1.0
_audit_creation_date 2023-6-5
_audit_author_name 'Poobodin Mano'

_cell_length_a    29.6365
_cell_length_b    30.024
_cell_length_c    35.615
_cell_angle_alpha 89.5538
_cell_angle_beta  90.4462
_cell_angle_gamma 89.9991
_cell_volume      31688.5

_symmetry_cell_setting          triclinic
_symmetry_space_group_name_Hall 'P 1'
_symmetry_space_group_name_H-M  'P 1'
_symmetry_Int_Tables_number     1

_symmetry_equiv_pos_as_xyz 'x,y,z'

loop_
_atom_site_label
_atom_site_type_symbol
_atom_site_fract_x
_atom_site_fract_y
_atom_site_fract_z
_atom_site_charge
C1       C      0.329870000000     0.452310000000     0.961350000000     0.405392   
C2       C      0.306820000000     0.324660000000     0.399100000000     0.406366   
C3       C      0.435890000000     0.352310000000     0.454950000000     0.404823   
C4       C      0.308530000000     0.330350000000     0.023500000000     0.411007   
C5       C      0.352390000000     0.630690000000     0.474790000000     0.406259   
C6       C      0.320230000000     0.761250000000     0.038590000000     0.406483   
C7       C      0.451460000000     0.731850000000     0.997570000000     0.406305   
C8       C      0.328910000000     0.761080000000     0.420590000000     0.401881   
C9       C      0.618220000000     0.343310000000     0.973120000000     0.408981   
C10      C      0.738860000000     0.299700000000     0.408690000000     0.404157   
C11      C      0.740240000000     0.423700000000     0.468190000000     0.404289   
C12      C      0.746680000000     0.300870000000     0.034610000000     0.408162   
C13      C      0.725280000000     0.601170000000     0.968750000000     0.404403   
C14      C      0.754160000000     0.721470000000     0.405290000000     0.404885   
C15      C      0.628860000000     0.706870000000     0.481070000000     0.406012   
C16      C      0.763760000000     0.735090000000     0.022690000000     0.407749   
C17      C      0.845890000000     0.092230000000     0.228590000000     0.408589   
C18      C      0.812660000000     0.218090000000     0.286170000000     0.408158   
C19      C      0.937750000000     0.204920000000     0.221190000000     0.403395   
C20      C      0.807650000000     0.215140000000     0.161530000000     0.405819   
C21      C      0.948780000000     0.826420000000     0.199610000000     0.408131   
C22      C      0.830230000000     0.779580000000     0.276490000000     0.408999   
C23      C      0.842730000000     0.914140000000     0.239930000000     0.402035   
C24      C      0.825060000000     0.797300000000     0.154980000000     0.403268   
C25      C      0.126610000000     0.850240000000     0.217950000000     0.407621   
C26      C      0.255840000000     0.819020000000     0.170490000000     0.404905   
C27      C      0.231490000000     0.949890000000     0.229850000000     0.40759    
C28      C      0.251590000000     0.822950000000     0.290910000000     0.405846   
C29      C      0.115130000000     0.239290000000     0.218630000000     0.401408   
C30      C      0.250390000000     0.262880000000     0.264970000000     0.411085   
C31      C      0.207300000000     0.127450000000     0.217170000000     0.409758   
C32      C      0.241890000000     0.245970000000     0.147590000000     0.39829    
C33      C      0.196280000000     0.058490000000     0.254470000000    -0.0108708  
C34      C      0.218750000000     0.055010000000     0.186270000000    -0.0109144  
C35      C      0.230520000000     0.021680000000     0.263740000000    -0.0106763  
C36      C      0.253250000000     0.018940000000     0.196260000000    -0.00984419 
C37      C      0.058240000000     0.806010000000     0.230480000000    -0.010076   
C38      C      0.053150000000     0.880700000000     0.196780000000    -0.0109585  
C39      C      0.022350000000     0.787870000000     0.203700000000    -0.00951239 
C40      C      0.016260000000     0.861490000000     0.171220000000    -0.0101513  
C41      C      0.808760000000     0.021270000000     0.211960000000    -0.0103915  
C42      C      0.883630000000     0.022150000000     0.247050000000    -0.0106826  
C43      C      0.794230000000     0.981340000000     0.236050000000    -0.0109744  
C44      C      0.867200000000     0.983320000000     0.271310000000    -0.0102811  
C45      C      0.011260000000     0.206950000000     0.253770000000    -0.00993413 
C46      C      0.004850000000     0.225690000000     0.184180000000    -0.0110574  
C47      C      0.046770000000     0.243440000000     0.257760000000    -0.0106224  
C48      C      0.041980000000     0.260780000000     0.189360000000    -0.0118918  
C49      C      0.769700000000     0.733490000000     0.304340000000    -0.0108011  
C50      C      0.843530000000     0.742810000000     0.337970000000    -0.0105256  
C51      C      0.744280000000     0.746920000000     0.339680000000    -0.0102931  
C52      C      0.818960000000     0.756520000000     0.373600000000    -0.010781   
C53      C      0.827430000000     0.737120000000     0.067770000000    -0.00981309 
C54      C      0.775480000000     0.802510000000     0.061250000000    -0.0103577  
C55      C      0.819450000000     0.735520000000     0.110010000000    -0.0106122  
C56      C      0.768440000000     0.802750000000     0.103790000000    -0.0113014  
C57      C      0.727740000000     0.246150000000     0.356780000000    -0.0110731  
C58      C      0.787770000000     0.305150000000     0.353210000000    -0.0102022  
C59      C      0.760660000000     0.212220000000     0.340120000000    -0.0107426  
C60      C      0.821070000000     0.271160000000     0.338150000000    -0.00998513 
C61      C      0.801750000000     0.248780000000     0.063640000000    -0.0112034  
C62      C      0.757320000000     0.301730000000     0.103530000000    -0.0104374  
C63      C      0.794370000000     0.211810000000     0.092850000000    -0.0104951  
C64      C      0.750080000000     0.264640000000     0.132590000000    -0.011246   
C65      C      0.734090000000     0.530790000000     0.004330000000    -0.00897838 
C66      C      0.720030000000     0.530620000000     0.433910000000    -0.0112282  
C67      C      0.767110000000     0.492060000000     0.999690000000    -0.0122748  
C68      C      0.753360000000     0.492030000000     0.430560000000    -0.00911529 
C69      C      0.240830000000     0.793950000000     0.355360000000    -0.0102857  
C70      C      0.313600000000     0.780590000000     0.321180000000    -0.0110464  
C71      C      0.267540000000     0.805060000000     0.390960000000    -0.0112272  
C72      C      0.340190000000     0.791960000000     0.356780000000    -0.0105416  
C73      C      0.319650000000     0.820550000000     0.086290000000    -0.0105528  
C74      C      0.253700000000     0.768470000000     0.079760000000    -0.0101098  
C75      C      0.321280000000     0.811310000000     0.128490000000    -0.0100673  
C76      C      0.254490000000     0.760110000000     0.122220000000    -0.0112375  
C77      C      0.523370000000     0.771000000000     0.985110000000    -0.0117191  
C78      C      0.520950000000     0.708170000000     0.031130000000    -0.0108827  
C79      C      0.559720000000     0.747280000000     0.462500000000    -0.0105606  
C80      C      0.557160000000     0.683070000000     0.509470000000    -0.0107067  
C81      C      0.312500000000     0.264960000000     0.311880000000    -0.00971621 
C82      C      0.258290000000     0.328720000000     0.306020000000    -0.010149   
C83      C      0.303940000000     0.262220000000     0.354160000000    -0.0117201  
C84      C      0.249340000000     0.326350000000     0.348290000000    -0.0112099  
C85      C      0.309290000000     0.272470000000     0.113420000000    -0.0116116  
C86      C      0.236870000000     0.257160000000     0.078740000000    -0.0113889  
C87      C      0.314400000000     0.316470000000     0.091910000000    -0.0100754  
C88      C      0.241890000000     0.301060000000     0.057040000000    -0.0104937  
C89      C      0.503300000000     0.303420000000     0.458960000000    -0.0109596  
C90      C      0.510630000000     0.383690000000     0.439600000000    -0.0109789  
C91      C      0.543910000000     0.308490000000     0.985610000000    -0.0118084  
C92      C      0.549590000000     0.389510000000     0.967390000000    -0.01067    
C93      C      0.325870000000     0.525230000000     0.928380000000    -0.00998958 
C94      C      0.308930000000     0.519650000000     0.996920000000    -0.0123234  
C95      C      0.359000000000     0.563350000000     0.435780000000    -0.0112997  
C96      C      0.342170000000     0.557300000000     0.505210000000    -0.0104901  
C97      C      0.329870000000     0.452310000000     0.461350000000     0.405475   
C98      C      0.306820000000     0.324660000000     0.899090000000     0.406306   
C99      C      0.435890000000     0.352300000000     0.954950000000     0.404788   
C100     C      0.308530000000     0.330350000000     0.523500000000     0.410233   
C101     C      0.352390000000     0.630690000000     0.974790000000     0.405383   
C102     C      0.320230000000     0.761240000000     0.538590000000     0.406585   
C103     C      0.451470000000     0.731850000000     0.497570000000     0.407849   
C104     C      0.328910000000     0.761080000000     0.920590000000     0.401851   
C105     C      0.618220000000     0.343310000000     0.473120000000     0.409055   
C106     C      0.738860000000     0.299700000000     0.908690000000     0.404292   
C107     C      0.740240000000     0.423700000000     0.968190000000     0.40412    
C108     C      0.746690000000     0.300870000000     0.534610000000     0.408029   
C109     C      0.725280000000     0.601170000000     0.468750000000     0.404569   
C110     C      0.754160000000     0.721470000000     0.905290000000     0.404459   
C111     C      0.628870000000     0.706870000000     0.981070000000     0.405847   
C112     C      0.763760000000     0.735090000000     0.522690000000     0.407775   
C113     C      0.845890000000     0.092230000000     0.728590000000     0.408577   
C114     C      0.812660000000     0.218090000000     0.786170000000     0.408015   
C115     C      0.937760000000     0.204920000000     0.721190000000     0.403429   
C116     C      0.807650000000     0.215140000000     0.661530000000     0.405808   
C117     C      0.948770000000     0.826430000000     0.699610000000     0.408248   
C118     C      0.830230000000     0.779580000000     0.776490000000     0.409212   
C119     C      0.842730000000     0.914140000000     0.739940000000     0.402024   
C120     C      0.825060000000     0.797300000000     0.654980000000     0.403236   
C121     C      0.126610000000     0.850230000000     0.717960000000     0.407611   
C122     C      0.255840000000     0.819020000000     0.670490000000     0.404703   
C123     C      0.231490000000     0.949880000000     0.729860000000     0.407493   
C124     C      0.251580000000     0.822950000000     0.790910000000     0.405923   
C125     C      0.115130000000     0.239290000000     0.718630000000     0.401407   
C126     C      0.250390000000     0.262880000000     0.764970000000     0.411083   
C127     C      0.207300000000     0.127450000000     0.717170000000     0.409755   
C128     C      0.241890000000     0.245970000000     0.647590000000     0.398281   
C129     C      0.196280000000     0.058490000000     0.754470000000    -0.0108629  
C130     C      0.218750000000     0.055010000000     0.686260000000    -0.0110166  
C131     C      0.230520000000     0.021680000000     0.763740000000    -0.0107045  
C132     C      0.253250000000     0.018940000000     0.696260000000    -0.00980084 
C133     C      0.058240000000     0.806010000000     0.730480000000    -0.0100867  
C134     C      0.053150000000     0.880700000000     0.696780000000    -0.0109482  
C135     C      0.022350000000     0.787870000000     0.703700000000    -0.00951461 
C136     C      0.016260000000     0.861490000000     0.671220000000    -0.0101595  
C137     C      0.808770000000     0.021270000000     0.711950000000    -0.0104025  
C138     C      0.883630000000     0.022150000000     0.747050000000    -0.0106547  
C139     C      0.794230000000     0.981340000000     0.736050000000    -0.0109606  
C140     C      0.867200000000     0.983320000000     0.771310000000    -0.0102941  
C141     C      0.011260000000     0.206950000000     0.753770000000    -0.00992259 
C142     C      0.004850000000     0.225690000000     0.684180000000    -0.0110394  
C143     C      0.046770000000     0.243440000000     0.757760000000    -0.0106215  
C144     C      0.041980000000     0.260780000000     0.689360000000    -0.0118933  
C145     C      0.769700000000     0.733490000000     0.804340000000    -0.0107823  
C146     C      0.843530000000     0.742810000000     0.837970000000    -0.0105904  
C147     C      0.744280000000     0.746920000000     0.839680000000    -0.0103167  
C148     C      0.818950000000     0.756510000000     0.873600000000    -0.0106699  
C149     C      0.827440000000     0.737120000000     0.567770000000    -0.00987731 
C150     C      0.775480000000     0.802510000000     0.561250000000    -0.0103804  
C151     C      0.819450000000     0.735520000000     0.610010000000    -0.0105731  
C152     C      0.768440000000     0.802750000000     0.603790000000    -0.0112994  
C153     C      0.727740000000     0.246150000000     0.856780000000    -0.0110743  
C154     C      0.787770000000     0.305150000000     0.853210000000    -0.0102162  
C155     C      0.760660000000     0.212220000000     0.840120000000    -0.010745   
C156     C      0.821070000000     0.271160000000     0.838140000000    -0.00995559 
C157     C      0.801750000000     0.248780000000     0.563640000000    -0.0112044  
C158     C      0.757310000000     0.301730000000     0.603530000000    -0.0104867  
C159     C      0.794370000000     0.211810000000     0.592850000000    -0.0104919  
C160     C      0.750080000000     0.264640000000     0.632590000000    -0.0112252  
C161     C      0.734090000000     0.530790000000     0.504330000000    -0.010352   
C162     C      0.720030000000     0.530620000000     0.933910000000    -0.0111844  
C163     C      0.767110000000     0.492060000000     0.499690000000    -0.010713   
C164     C      0.753360000000     0.492030000000     0.930560000000    -0.00919033 
C165     C      0.240830000000     0.793950000000     0.855360000000    -0.0102663  
C166     C      0.313600000000     0.780590000000     0.821180000000    -0.0110398  
C167     C      0.267540000000     0.805060000000     0.890960000000    -0.0112282  
C168     C      0.340190000000     0.791960000000     0.856780000000    -0.010545   
C169     C      0.319650000000     0.820550000000     0.586290000000    -0.0105412  
C170     C      0.253700000000     0.768470000000     0.579750000000    -0.0100851  
C171     C      0.321280000000     0.811310000000     0.628490000000    -0.0101075  
C172     C      0.254490000000     0.760110000000     0.622220000000    -0.0112599  
C173     C      0.523370000000     0.771000000000     0.485110000000    -0.0102718  
C174     C      0.520950000000     0.708170000000     0.531130000000    -0.0104275  
C175     C      0.559720000000     0.747280000000     0.962500000000    -0.0101948  
C176     C      0.557160000000     0.683080000000     0.009470000000    -0.00924976 
C177     C      0.312500000000     0.264960000000     0.811880000000    -0.0096934  
C178     C      0.258290000000     0.328720000000     0.806020000000    -0.0101405  
C179     C      0.303940000000     0.262220000000     0.854160000000    -0.0117131  
C180     C      0.249340000000     0.326350000000     0.848290000000    -0.0111989  
C181     C      0.309290000000     0.272470000000     0.613420000000    -0.0116207  
C182     C      0.236870000000     0.257160000000     0.578740000000    -0.0113832  
C183     C      0.314400000000     0.316470000000     0.591910000000    -0.0100906  
C184     C      0.241890000000     0.301060000000     0.557040000000    -0.0105407  
C185     C      0.503300000000     0.303420000000     0.958960000000    -0.0107561  
C186     C      0.510630000000     0.383690000000     0.939600000000    -0.0109651  
C187     C      0.543910000000     0.308490000000     0.485610000000    -0.0109891  
C188     C      0.549590000000     0.389510000000     0.467390000000    -0.0106279  
C189     C      0.325870000000     0.525230000000     0.428380000000    -0.009912   
C190     C      0.308930000000     0.519650000000     0.496920000000    -0.0107423  
C191     C      0.359000000000     0.563350000000     0.935780000000    -0.0112821  
C192     C      0.342170000000     0.557310000000     0.005210000000    -0.00908922 
H1       H      0.187180000000     0.038480000000     0.176650000000     0.0422659  
H2       H      0.162650000000     0.042750000000     0.250400000000     0.0411987  
H3       H      0.218020000000     0.001440000000     0.287770000000     0.0475723  
H4       H      0.231830000000     0.075330000000     0.162490000000     0.0477086  
H5       H      0.257850000000     0.996740000000     0.171750000000     0.0494661  
H6       H      0.286130000000     0.035430000000     0.202160000000     0.0404112  
H7       H      0.193930000000     0.081290000000     0.278830000000     0.0485033  
H8       H      0.262690000000     0.037730000000     0.272520000000     0.040603   
H9       H      0.036600000000     0.899360000000     0.219730000000     0.0419539  
H10      H      0.041420000000     0.816570000000     0.256750000000     0.0441092  
H11      H      0.003150000000     0.760870000000     0.217940000000     0.0501298  
H12      H      0.073610000000     0.904850000000     0.180310000000     0.0472863  
H13      H      0.992610000000     0.888480000000     0.162560000000     0.0470938  
H14      H      0.032590000000     0.848450000000     0.145540000000     0.0400426  
H15      H      0.082140000000     0.778710000000     0.237840000000     0.0502088  
H16      H      0.039720000000     0.773160000000     0.179150000000     0.0411552  
H17      H      0.904340000000     0.008550000000     0.223890000000     0.0425338  
H18      H      0.821720000000     0.008530000000     0.184860000000     0.0426152  
H19      H      0.771000000000     0.959860000000     0.219530000000     0.0496508  
H20      H      0.905800000000     0.043750000000     0.264450000000     0.0484959  
H21      H      0.896620000000     0.963210000000     0.280990000000     0.0480254  
H22      H      0.850430000000     0.997190000000     0.296490000000     0.0398463  
H23      H      0.778670000000     0.042210000000     0.205600000000     0.0482353  
H24      H      0.775320000000     0.994190000000     0.260540000000     0.0400858  
H25      H      0.020580000000     0.194920000000     0.173050000000     0.0411001  
H26      H      0.028810000000     0.174440000000     0.250850000000     0.0431527  
H27      H      0.069980000000     0.235060000000     0.281450000000     0.0490716  
H28      H      0.980260000000     0.237990000000     0.162760000000     0.0478407  
H29      H      0.061700000000     0.263900000000     0.163050000000     0.0493501  
H30      H      0.025480000000     0.293390000000     0.194640000000     0.0404469  
H31      H      0.991180000000     0.205510000000     0.280000000000     0.0502456  
H32      H      0.029270000000     0.275080000000     0.264650000000     0.0408155  
H33      H      0.849490000000     0.706260000000     0.339320000000     0.0412867  
H34      H      0.772740000000     0.696570000000     0.304240000000     0.0414551  
H35      H      0.711840000000     0.728350000000     0.340690000000     0.0499236  
H36      H      0.876910000000     0.759650000000     0.337010000000     0.0491748  
H37      H      0.838790000000     0.744830000000     0.398400000000     0.0486966  
H38      H      0.817680000000     0.793510000000     0.374450000000     0.0409667  
H39      H      0.749770000000     0.743690000000     0.279140000000     0.0482261  
H40      H      0.736250000000     0.783030000000     0.337600000000     0.041421   
H41      H      0.803520000000     0.825800000000     0.054590000000     0.0407514  
H42      H      0.857690000000     0.758070000000     0.062400000000     0.0412336  
H43      H      0.850490000000     0.722830000000     0.124190000000     0.0492793  
H44      H      0.744490000000     0.815080000000     0.046920000000     0.047992   
H45      H      0.764200000000     0.837720000000     0.113170000000     0.0503055  
H46      H      0.736610000000     0.784620000000     0.109970000000     0.0422473  
H47      H      0.834650000000     0.702940000000     0.057630000000     0.0504242  
H48      H      0.791710000000     0.711540000000     0.115730000000     0.0432486  
H49      H      0.771790000000     0.322700000000     0.328910000000     0.0420415  
H50      H      0.706820000000     0.260230000000     0.333510000000     0.0410137  
H51      H      0.741410000000     0.188650000000     0.322160000000     0.0471601  
H52      H      0.806650000000     0.330330000000     0.369810000000     0.0502737  
H53      H      0.845260000000     0.288560000000     0.319360000000     0.0493006  
H54      H      0.840610000000     0.257090000000     0.362240000000     0.0421099  
H55      H      0.704780000000     0.228620000000     0.376540000000     0.0472657  
H56      H      0.776050000000     0.192750000000     0.363620000000     0.0410392  
H57      H      0.787050000000     0.321710000000     0.112470000000     0.0423923  
H58      H      0.835010000000     0.264580000000     0.069390000000     0.0425272  
H59      H      0.824010000000     0.189110000000     0.092890000000     0.0493198  
H60      H      0.727420000000     0.324110000000     0.103410000000     0.0489376  
H61      H      0.748070000000     0.279640000000     0.160970000000     0.0478303  
H62      H      0.717110000000     0.248450000000     0.126490000000     0.0406403  
H63      H      0.803150000000     0.233640000000     0.035280000000     0.0473143  
H64      H      0.764290000000     0.192170000000     0.084170000000     0.0407855  
H65      H      0.685300000000     0.516660000000     0.434800000000     0.044227   
H66      H      0.700810000000     0.516930000000     0.012670000000     0.0435956  
H67      H      0.767300000000     0.471170000000     0.025600000000     0.0496846  
H68      H      0.722480000000     0.551980000000     0.408360000000     0.0480534  
H69      H      0.743850000000     0.471090000000     0.406140000000     0.0496241  
H70      H      0.787390000000     0.506210000000     0.425160000000     0.0398634  
H71      H      0.746320000000     0.552270000000     0.027570000000     0.0499628  
H72      H      0.801530000000     0.506110000000     0.995990000000     0.040677   
H73      H      0.309330000000     0.743820000000     0.320120000000     0.0415008  
H74      H      0.231240000000     0.758170000000     0.356640000000     0.0413525  
H75      H      0.247560000000     0.794800000000     0.415870000000     0.0488027  
H76      H      0.333570000000     0.790960000000     0.296300000000     0.0487232  
H77      H      0.372030000000     0.772370000000     0.357350000000     0.0499467  
H78      H      0.349280000000     0.827870000000     0.355570000000     0.0416384  
H79      H      0.209230000000     0.813920000000     0.354780000000     0.049196   
H80      H      0.272030000000     0.841800000000     0.392040000000     0.0413314  
H81      H      0.229230000000     0.795710000000     0.073680000000     0.0414733  
H82      H      0.298630000000     0.850730000000     0.081250000000     0.0422009  
H83      H      0.334320000000     0.841320000000     0.143100000000     0.0508132  
H84      H      0.241470000000     0.738010000000     0.065340000000     0.0498673  
H85      H      0.219500000000     0.754010000000     0.132030000000     0.0484473  
H86      H      0.274520000000     0.729430000000     0.127870000000     0.041974   
H87      H      0.354320000000     0.827820000000     0.076250000000     0.0490688  
H88      H      0.345410000000     0.783570000000     0.133840000000     0.04223    
H89      H      0.538010000000     0.728640000000     0.052930000000     0.0407668  
H90      H      0.540410000000     0.792890000000     0.005910000000     0.0419272  
H91      H      0.583010000000     0.772710000000     0.450660000000     0.0497748  
H92      H      0.498590000000     0.683920000000     0.045620000000     0.0482419  
H93      H      0.578670000000     0.664340000000     0.029860000000     0.0478007  
H94      H      0.540200000000     0.658370000000     0.491030000000     0.0409092  
H95      H      0.502760000000     0.792440000000     0.466030000000     0.0498278  
H96      H      0.543130000000     0.730040000000     0.438580000000     0.0427715  
H97      H      0.285670000000     0.353370000000     0.301120000000     0.0410193  
H98      H      0.342350000000     0.286690000000     0.307250000000     0.040613   
H99      H      0.335260000000     0.250790000000     0.368660000000     0.0485814  
H100     H      0.227440000000     0.340870000000     0.291240000000     0.0481254  
H101     H      0.241970000000     0.360410000000     0.358630000000     0.0493459  
H102     H      0.218810000000     0.305540000000     0.352860000000     0.0427239  
H103     H      0.320770000000     0.231230000000     0.301280000000     0.0487667  
H104     H      0.277360000000     0.236760000000     0.359170000000     0.0425239  
H105     H      0.251540000000     0.230080000000     0.061550000000     0.0417404  
H106     H      0.328560000000     0.246420000000     0.098360000000     0.0416467  
H107     H      0.350910000000     0.323510000000     0.088100000000     0.0485608  
H108     H      0.200390000000     0.249880000000     0.082420000000     0.0509544  
H109     H      0.227030000000     0.297100000000     0.028500000000     0.0482064  
H110     H      0.222160000000     0.327050000000     0.071750000000     0.0423474  
H111     H      0.324530000000     0.276060000000     0.141860000000     0.0486749  
H112     H      0.300060000000     0.343550000000     0.109290000000     0.0420487  
H113     H      0.524940000000     0.375440000000     0.411730000000     0.0407862  
H114     H      0.515760000000     0.290340000000     0.431820000000     0.0412613  
H115     H      0.563110000000     0.276680000000     0.986500000000     0.0476561  
H116     H      0.492140000000     0.415770000000     0.436720000000     0.0481033  
H117     H      0.572840000000     0.415490000000     0.456380000000     0.048006   
H118     H      0.535620000000     0.401670000000     0.994320000000     0.0405308  
H119     H      0.479620000000     0.278420000000     0.970890000000     0.0487446  
H120     H      0.530940000000     0.314740000000     0.014310000000     0.0416136  
H121     H      0.274810000000     0.534470000000     0.993020000000     0.0406557  
H122     H      0.292310000000     0.539960000000     0.921660000000     0.0401412  
H123     H      0.357840000000     0.586930000000     0.411550000000     0.0473948  
H124     H      0.307660000000     0.496630000000     0.021490000000     0.0491879  
H125     H      0.329560000000     0.576630000000     0.529480000000     0.0492815  
H126     H      0.375070000000     0.542280000000     0.513570000000     0.0426152  
H127     H      0.337140000000     0.506240000000     0.403470000000     0.049461   
H128     H      0.393650000000     0.549220000000     0.437440000000     0.0426598  
H129     H      0.187180000000     0.038480000000     0.676650000000     0.0422683  
H130     H      0.162650000000     0.042750000000     0.750400000000     0.0411784  
H131     H      0.218020000000     0.001440000000     0.787770000000     0.0475416  
H132     H      0.231830000000     0.075330000000     0.662490000000     0.0477017  
H133     H      0.257850000000     0.996740000000     0.671750000000     0.0494228  
H134     H      0.286130000000     0.035430000000     0.702160000000     0.0403742  
H135     H      0.193930000000     0.081290000000     0.778830000000     0.048473   
H136     H      0.262690000000     0.037730000000     0.772510000000     0.0405874  
H137     H      0.036600000000     0.899360000000     0.719730000000     0.0419346  
H138     H      0.041420000000     0.816570000000     0.756750000000     0.0440877  
H139     H      0.003150000000     0.760870000000     0.717940000000     0.0501161  
H140     H      0.073610000000     0.904850000000     0.680310000000     0.0472593  
H141     H      0.992610000000     0.888480000000     0.662560000000     0.0470681  
H142     H      0.032590000000     0.848440000000     0.645540000000     0.0399993  
H143     H      0.082140000000     0.778710000000     0.737840000000     0.0501902  
H144     H      0.039720000000     0.773160000000     0.679150000000     0.0411231  
H145     H      0.904340000000     0.008550000000     0.723890000000     0.0425136  
H146     H      0.821720000000     0.008530000000     0.684860000000     0.0425936  
H147     H      0.771000000000     0.959860000000     0.719530000000     0.0496265  
H148     H      0.905800000000     0.043750000000     0.764460000000     0.0484587  
H149     H      0.896620000000     0.963210000000     0.780990000000     0.0479977  
H150     H      0.850430000000     0.997180000000     0.796490000000     0.0398076  
H151     H      0.778670000000     0.042210000000     0.705600000000     0.048211   
H152     H      0.775320000000     0.994190000000     0.760540000000     0.0400522  
H153     H      0.020580000000     0.194920000000     0.673050000000     0.0410664  
H154     H      0.028810000000     0.174440000000     0.750850000000     0.0431302  
H155     H      0.069980000000     0.235060000000     0.781450000000     0.0490412  
H156     H      0.980260000000     0.237990000000     0.662760000000     0.0478003  
H157     H      0.061700000000     0.263900000000     0.663050000000     0.0493111  
H158     H      0.025480000000     0.293390000000     0.694640000000     0.0404182  
H159     H      0.991180000000     0.205510000000     0.780000000000     0.0502092  
H160     H      0.029270000000     0.275080000000     0.764650000000     0.0407892  
H161     H      0.849500000000     0.706260000000     0.839320000000     0.0412747  
H162     H      0.772740000000     0.696570000000     0.804240000000     0.0414477  
H163     H      0.711840000000     0.728350000000     0.840690000000     0.0499186  
H164     H      0.876910000000     0.759650000000     0.837010000000     0.0491449  
H165     H      0.838790000000     0.744830000000     0.898400000000     0.048582   
H166     H      0.817690000000     0.793510000000     0.874450000000     0.0408553  
H167     H      0.749780000000     0.743690000000     0.779140000000     0.0482152  
H168     H      0.736250000000     0.783030000000     0.837600000000     0.0413898  
H169     H      0.803520000000     0.825800000000     0.554590000000     0.0406673  
H170     H      0.857690000000     0.758070000000     0.562400000000     0.0411728  
H171     H      0.850490000000     0.722830000000     0.624190000000     0.0492364  
H172     H      0.744490000000     0.815080000000     0.546920000000     0.0478953  
H173     H      0.764200000000     0.837720000000     0.613170000000     0.0502621  
H174     H      0.736610000000     0.784620000000     0.609970000000     0.0422053  
H175     H      0.834640000000     0.702940000000     0.557630000000     0.0503561  
H176     H      0.791700000000     0.711540000000     0.615730000000     0.043196   
H177     H      0.771790000000     0.322700000000     0.828910000000     0.042038   
H178     H      0.706820000000     0.260230000000     0.833510000000     0.0410057  
H179     H      0.741410000000     0.188650000000     0.822160000000     0.0471382  
H180     H      0.806650000000     0.330330000000     0.869810000000     0.0502321  
H181     H      0.845260000000     0.288560000000     0.819360000000     0.0492701  
H182     H      0.840610000000     0.257090000000     0.862240000000     0.0420353  
H183     H      0.704780000000     0.228620000000     0.876540000000     0.047214   
H184     H      0.776050000000     0.192750000000     0.863620000000     0.0409729  
H185     H      0.787050000000     0.321710000000     0.612470000000     0.04235    
H186     H      0.835000000000     0.264580000000     0.569390000000     0.042454   
H187     H      0.824010000000     0.189110000000     0.592890000000     0.0492608  
H188     H      0.727420000000     0.324110000000     0.603410000000     0.0488913  
H189     H      0.748070000000     0.279640000000     0.660970000000     0.0478066  
H190     H      0.717110000000     0.248450000000     0.626490000000     0.0405929  
H191     H      0.803150000000     0.233640000000     0.535280000000     0.0471953  
H192     H      0.764290000000     0.192170000000     0.584170000000     0.0407162  
H193     H      0.685300000000     0.516660000000     0.934800000000     0.0441499  
H194     H      0.700810000000     0.516920000000     0.512670000000     0.043617   
H195     H      0.767300000000     0.471170000000     0.525600000000     0.0488975  
H196     H      0.722480000000     0.551980000000     0.908360000000     0.0480267  
H197     H      0.743850000000     0.471080000000     0.906140000000     0.0496267  
H198     H      0.787390000000     0.506210000000     0.925160000000     0.0398336  
H199     H      0.746320000000     0.552270000000     0.527570000000     0.0500482  
H200     H      0.801530000000     0.506110000000     0.495990000000     0.0405481  
H201     H      0.309330000000     0.743820000000     0.820120000000     0.0414905  
H202     H      0.231240000000     0.758160000000     0.856640000000     0.0413106  
H203     H      0.247560000000     0.794800000000     0.915870000000     0.0487051  
H204     H      0.333570000000     0.790960000000     0.796300000000     0.0487158  
H205     H      0.372030000000     0.772370000000     0.857350000000     0.0499281  
H206     H      0.349280000000     0.827870000000     0.855570000000     0.0416038  
H207     H      0.209230000000     0.813920000000     0.854780000000     0.0491502  
H208     H      0.272030000000     0.841800000000     0.892040000000     0.0412616  
H209     H      0.229230000000     0.795710000000     0.573680000000     0.0413852  
H210     H      0.298630000000     0.850730000000     0.581250000000     0.0421224  
H211     H      0.334320000000     0.841310000000     0.643100000000     0.0507958  
H212     H      0.241470000000     0.738000000000     0.565340000000     0.0497788  
H213     H      0.219500000000     0.754010000000     0.632030000000     0.0484249  
H214     H      0.274520000000     0.729430000000     0.627870000000     0.0419555  
H215     H      0.354320000000     0.827810000000     0.576250000000     0.0490022  
H216     H      0.345410000000     0.783570000000     0.633840000000     0.0422172  
H217     H      0.538010000000     0.728640000000     0.552930000000     0.0405786  
H218     H      0.540410000000     0.792890000000     0.505910000000     0.0411739  
H219     H      0.583010000000     0.772710000000     0.950650000000     0.0495931  
H220     H      0.498590000000     0.683920000000     0.545620000000     0.0480268  
H221     H      0.578680000000     0.664340000000     0.529860000000     0.0478977  
H222     H      0.540200000000     0.658370000000     0.991030000000     0.040192   
H223     H      0.502760000000     0.792440000000     0.966030000000     0.0500288  
H224     H      0.543130000000     0.730040000000     0.938580000000     0.0426603  
H225     H      0.285670000000     0.353370000000     0.801120000000     0.0410049  
H226     H      0.342360000000     0.286690000000     0.807250000000     0.040587   
H227     H      0.335260000000     0.250790000000     0.868660000000     0.0485361  
H228     H      0.227440000000     0.340870000000     0.791230000000     0.048108   
H229     H      0.241970000000     0.360410000000     0.858630000000     0.0493077  
H230     H      0.218810000000     0.305540000000     0.852860000000     0.0426792  
H231     H      0.320770000000     0.231230000000     0.801280000000     0.0487402  
H232     H      0.277360000000     0.236760000000     0.859170000000     0.0424745  
H233     H      0.251540000000     0.230080000000     0.561550000000     0.04164    
H234     H      0.328560000000     0.246420000000     0.598370000000     0.0415826  
H235     H      0.350920000000     0.323510000000     0.588100000000     0.0484985  
H236     H      0.200390000000     0.249880000000     0.582430000000     0.0508987  
H237     H      0.227030000000     0.297100000000     0.528500000000     0.0480208  
H238     H      0.222160000000     0.327050000000     0.571750000000     0.042279   
H239     H      0.324530000000     0.276060000000     0.641860000000     0.0486494  
H240     H      0.300060000000     0.343540000000     0.609290000000     0.0420191  
H241     H      0.524940000000     0.375440000000     0.911730000000     0.0407836  
H242     H      0.515760000000     0.290340000000     0.931820000000     0.0411973  
H243     H      0.563110000000     0.276680000000     0.486500000000     0.0476206  
H244     H      0.492140000000     0.415770000000     0.936720000000     0.0480616  
H245     H      0.572840000000     0.415490000000     0.956390000000     0.0479665  
H246     H      0.535620000000     0.401670000000     0.494320000000     0.0406859  
H247     H      0.479620000000     0.278420000000     0.470890000000     0.0489311  
H248     H      0.530940000000     0.314740000000     0.514310000000     0.0409166  
H249     H      0.274810000000     0.534470000000     0.493020000000     0.0405244  
H250     H      0.292310000000     0.539960000000     0.421660000000     0.0401644  
H251     H      0.357840000000     0.586930000000     0.911550000000     0.0473821  
H252     H      0.307660000000     0.496630000000     0.521490000000     0.0483991  
H253     H      0.329560000000     0.576630000000     0.029480000000     0.0491156  
H254     H      0.375080000000     0.542270000000     0.013570000000     0.0425444  
H255     H      0.337140000000     0.506240000000     0.903470000000     0.0494603  
H256     H      0.393650000000     0.549220000000     0.937440000000     0.0425733  
In1      In     0.345350000000     0.363620000000     0.459800000000     2.38849    
In2      In     0.362950000000     0.719840000000     0.482240000000     2.40571    
In3      In     0.709770000000     0.339110000000     0.472130000000     2.38204    
In4      In     0.717360000000     0.690790000000     0.469460000000     2.41431    
In5      In     0.849360000000     0.182400000000     0.223890000000     2.38664    
In6      In     0.861050000000     0.829820000000     0.218770000000     2.41431    
In7      In     0.216340000000     0.861150000000     0.228160000000     2.40463    
In8      In     0.203540000000     0.217810000000     0.212240000000     2.38516    
In9      In     0.345350000000     0.363620000000     0.959800000000     2.38798    
In10     In     0.362950000000     0.719840000000     0.982240000000     2.40368    
In11     In     0.709770000000     0.339110000000     0.972130000000     2.38112    
In12     In     0.717360000000     0.690800000000     0.969460000000     2.41315    
In13     In     0.849360000000     0.182400000000     0.723890000000     2.38642    
In14     In     0.861050000000     0.829830000000     0.718770000000     2.41454    
In15     In     0.216340000000     0.861150000000     0.728160000000     2.40466    
In16     In     0.203540000000     0.217810000000     0.712240000000     2.38514    
N1       N      0.238650000000     0.994790000000     0.230140000000    -0.166733   
N2       N      0.208680000000     0.082050000000     0.219530000000    -0.16844    
N3       N      0.993460000000     0.824710000000     0.190770000000    -0.166265   
N4       N      0.081110000000     0.844940000000     0.213680000000    -0.166358   
N5       N      0.834340000000     0.957210000000     0.249680000000    -0.166253   
N6       N      0.845050000000     0.046790000000     0.230590000000    -0.167506   
N7       N      0.070300000000     0.248820000000     0.221930000000    -0.165911   
N8       N      0.982770000000     0.214650000000     0.220130000000    -0.165626   
N9       N      0.772380000000     0.739170000000     0.373440000000    -0.166219   
N10      N      0.815150000000     0.753100000000     0.305030000000    -0.167743   
N11      N      0.805990000000     0.779880000000     0.123370000000    -0.165586   
N12      N      0.788050000000     0.757510000000     0.049140000000    -0.166294   
N13      N      0.796960000000     0.234710000000     0.319210000000    -0.166388   
N14      N      0.752340000000     0.282750000000     0.375080000000    -0.165517   
N15      N      0.786000000000     0.230970000000     0.130090000000    -0.165779   
N16      N      0.766320000000     0.283010000000     0.066190000000    -0.166688   
N17      N      0.754540000000     0.466830000000     0.466070000000    -0.165115   
N18      N      0.728360000000     0.555790000000     0.968720000000    -0.166427   
N19      N      0.312320000000     0.783860000000     0.390160000000    -0.165645   
N20      N      0.268660000000     0.801530000000     0.321850000000    -0.166762   
N21      N      0.276240000000     0.797760000000     0.141480000000    -0.165773   
N22      N      0.298710000000     0.782510000000     0.067020000000    -0.165895   
N23      N      0.583750000000     0.713800000000     0.485770000000    -0.166855   
N24      N      0.496250000000     0.737680000000     0.005150000000    -0.16541    
N25      N      0.287880000000     0.305490000000     0.368080000000    -0.166493   
N26      N      0.273130000000     0.284870000000     0.292710000000    -0.16636    
N27      N      0.289550000000     0.314920000000     0.055950000000    -0.166705   
N28      N      0.261510000000     0.259220000000     0.114750000000    -0.164254   
N29      N      0.572260000000     0.346500000000     0.974200000000    -0.167746   
N30      N      0.481490000000     0.346840000000     0.452020000000    -0.166477   
N31      N      0.349000000000     0.585490000000     0.471610000000    -0.166886   
N32      N      0.321910000000     0.497090000000     0.962160000000    -0.165494   
N33      N      0.238650000000     0.994800000000     0.730140000000    -0.166634   
N34      N      0.208680000000     0.082050000000     0.719530000000    -0.168431   
N35      N      0.993450000000     0.824710000000     0.690770000000    -0.166278   
N36      N      0.081110000000     0.844940000000     0.713680000000    -0.166365   
N37      N      0.834340000000     0.957210000000     0.749680000000    -0.166275   
N38      N      0.845050000000     0.046790000000     0.730590000000    -0.167514   
N39      N      0.070300000000     0.248820000000     0.721930000000    -0.165918   
N40      N      0.982770000000     0.214650000000     0.720130000000    -0.165693   
N41      N      0.772380000000     0.739170000000     0.873440000000    -0.166176   
N42      N      0.815150000000     0.753090000000     0.805020000000    -0.167801   
N43      N      0.805990000000     0.779880000000     0.623370000000    -0.165601   
N44      N      0.788060000000     0.757510000000     0.549140000000    -0.166318   
N45      N      0.796960000000     0.234710000000     0.819210000000    -0.166375   
N46      N      0.752340000000     0.282750000000     0.875080000000    -0.165563   
N47      N      0.786000000000     0.230970000000     0.630090000000    -0.165791   
N48      N      0.766320000000     0.283000000000     0.566190000000    -0.166709   
N49      N      0.754540000000     0.466830000000     0.966070000000    -0.164973   
N50      N      0.728360000000     0.555800000000     0.468720000000    -0.166101   
N51      N      0.312320000000     0.783860000000     0.890160000000    -0.165663   
N52      N      0.268660000000     0.801530000000     0.821850000000    -0.166762   
N53      N      0.276240000000     0.797760000000     0.641480000000    -0.165737   
N54      N      0.298710000000     0.782510000000     0.567020000000    -0.16593    
N55      N      0.583750000000     0.713800000000     0.985770000000    -0.167265   
N56      N      0.496250000000     0.737680000000     0.505150000000    -0.166425   
N57      N      0.287880000000     0.305490000000     0.868080000000    -0.166555   
N58      N      0.273130000000     0.284870000000     0.792710000000    -0.166368   
N59      N      0.289550000000     0.314920000000     0.555950000000    -0.166637   
N60      N      0.261510000000     0.259220000000     0.614750000000    -0.164268   
N61      N      0.572260000000     0.346500000000     0.474200000000    -0.167798   
N62      N      0.481490000000     0.346840000000     0.952020000000    -0.166548   
N63      N      0.349000000000     0.585490000000     0.971610000000    -0.167159   
N64      N      0.321910000000     0.497090000000     0.462160000000    -0.165625   
O1       O      0.287360000000     0.331850000000     0.992620000000    -0.505694   
O2       O      0.348320000000     0.345200000000     0.022180000000    -0.498214   
O3       O      0.292780000000     0.360790000000     0.412490000000    -0.496229   
O4       O      0.340660000000     0.432190000000     0.431740000000    -0.486721   
O5       O      0.409680000000     0.321270000000     0.964690000000    -0.491137   
O6       O      0.327130000000     0.427780000000     0.990190000000    -0.501573   
O7       O      0.339890000000     0.307780000000     0.416570000000    -0.502475   
O8       O      0.416540000000     0.388830000000     0.447870000000    -0.504187   
O9       O      0.306200000000     0.754760000000     0.449940000000    -0.504576   
O10      O      0.368500000000     0.745600000000     0.421920000000    -0.491024   
O11      O      0.303420000000     0.728180000000     0.021810000000    -0.490772   
O12      O      0.362100000000     0.655860000000     0.947510000000    -0.508043   
O13      O      0.430080000000     0.755870000000     0.474290000000    -0.493827   
O14      O      0.347290000000     0.650520000000     0.505530000000    -0.499024   
O15      O      0.358500000000     0.773240000000     0.026970000000    -0.507309   
O16      O      0.428280000000     0.701750000000     0.013050000000    -0.505601   
O17      O      0.757120000000     0.289160000000     0.001840000000    -0.503569   
O18      O      0.717410000000     0.331260000000     0.035830000000    -0.496825   
O19      O      0.703790000000     0.286680000000     0.425520000000    -0.495587   
O20      O      0.639430000000     0.307830000000     0.480490000000    -0.498401   
O21      O      0.740510000000     0.401500000000     0.998470000000    -0.491889   
O22      O      0.642990000000     0.375990000000     0.965100000000    -0.508787   
O23      O      0.759680000000     0.331020000000     0.424630000000    -0.495716   
O24      O      0.724840000000     0.403200000000     0.440090000000    -0.484201   
O25      O      0.774700000000     0.696770000000     0.011720000000    -0.496949   
O26      O      0.728850000000     0.751070000000     0.007140000000    -0.506282   
O27      O      0.776510000000     0.716800000000     0.435330000000    -0.5083     
O28      O      0.717970000000     0.623830000000     0.439330000000    -0.507385   
O29      O      0.652310000000     0.729740000000     0.958680000000    -0.497185   
O30      O      0.728720000000     0.623710000000     0.998360000000    -0.494559   
O31      O      0.713390000000     0.709610000000     0.407310000000    -0.493383   
O32      O      0.650180000000     0.676330000000     0.498020000000    -0.509479   
O33      O      0.800310000000     0.230110000000     0.193970000000    -0.503503   
O34      O      0.836220000000     0.183990000000     0.160520000000    -0.493008   
O35      O      0.797930000000     0.182530000000     0.271850000000    -0.500206   
O36      O      0.814470000000     0.115020000000     0.214060000000    -0.498413   
O37      O      0.912190000000     0.207480000000     0.192710000000    -0.492875   
O38      O      0.878600000000     0.114800000000     0.240690000000    -0.504821   
O39      O      0.844440000000     0.236210000000     0.268300000000    -0.50043    
O40      O      0.918640000000     0.191500000000     0.250670000000    -0.489492   
O41      O      0.854020000000     0.776400000000     0.174350000000    -0.50701    
O42      O      0.814580000000     0.835100000000     0.167490000000    -0.490797   
O43      O      0.869050000000     0.796660000000     0.276430000000    -0.501902   
O44      O      0.930040000000     0.796930000000     0.219530000000    -0.498194   
O45      O      0.816850000000     0.892260000000     0.218700000000    -0.493669   
O46      O      0.923180000000     0.857840000000     0.189060000000    -0.504983   
O47      O      0.806610000000     0.788580000000     0.247900000000    -0.51225    
O48      O      0.877530000000     0.893400000000     0.250790000000    -0.506108   
O49      O      0.273350000000     0.826970000000     0.260840000000    -0.506441   
O50      O      0.212370000000     0.839240000000     0.289760000000    -0.496348   
O51      O      0.217190000000     0.808450000000     0.182210000000    -0.502492   
O52      O      0.151120000000     0.821810000000     0.234590000000    -0.49687    
O53      O      0.220000000000     0.928040000000     0.258670000000    -0.505231   
O54      O      0.147400000000     0.884170000000     0.206110000000    -0.505877   
O55      O      0.274300000000     0.850780000000     0.187750000000    -0.491751   
O56      O      0.235370000000     0.927020000000     0.200530000000    -0.499088   
O57      O      0.201420000000     0.232960000000     0.149300000000    -0.481038   
O58      O      0.262960000000     0.245140000000     0.178550000000    -0.496662   
O59      O      0.216660000000     0.279400000000     0.247980000000    -0.502655   
O60      O      0.138690000000     0.225130000000     0.245780000000    -0.498811   
O61      O      0.216040000000     0.148620000000     0.187480000000    -0.508969   
O62      O      0.136120000000     0.243150000000     0.188130000000    -0.487161   
O63      O      0.261060000000     0.224140000000     0.254710000000    -0.499528   
O64      O      0.196790000000     0.151660000000     0.244400000000    -0.499626   
O65      O      0.287360000000     0.331850000000     0.492620000000    -0.505021   
O66      O      0.348320000000     0.345200000000     0.522180000000    -0.498462   
O67      O      0.292780000000     0.360790000000     0.912490000000    -0.496168   
O68      O      0.340660000000     0.432190000000     0.931740000000    -0.486685   
O69      O      0.409680000000     0.321270000000     0.464690000000    -0.490959   
O70      O      0.327130000000     0.427780000000     0.490190000000    -0.501344   
O71      O      0.339890000000     0.307780000000     0.916570000000    -0.502424   
O72      O      0.416540000000     0.388830000000     0.947870000000    -0.504134   
O73      O      0.306200000000     0.754760000000     0.949940000000    -0.504599   
O74      O      0.368500000000     0.745600000000     0.921920000000    -0.490887   
O75      O      0.303420000000     0.728180000000     0.521810000000    -0.49133    
O76      O      0.362100000000     0.655860000000     0.447510000000    -0.508356   
O77      O      0.430080000000     0.755870000000     0.974290000000    -0.493459   
O78      O      0.347290000000     0.650520000000     0.005530000000    -0.498095   
O79      O      0.358500000000     0.773240000000     0.526970000000    -0.507812   
O80      O      0.428290000000     0.701750000000     0.513050000000    -0.506644   
O81      O      0.757120000000     0.289160000000     0.501840000000    -0.504035   
O82      O      0.717400000000     0.331260000000     0.535830000000    -0.497126   
O83      O      0.703790000000     0.286680000000     0.925520000000    -0.495621   
O84      O      0.639430000000     0.307830000000     0.980490000000    -0.498495   
O85      O      0.740510000000     0.401500000000     0.498470000000    -0.491692   
O86      O      0.642990000000     0.375990000000     0.465100000000    -0.508828   
O87      O      0.759670000000     0.331020000000     0.924630000000    -0.49588    
O88      O      0.724830000000     0.403200000000     0.940090000000    -0.484079   
O89      O      0.774700000000     0.696770000000     0.511720000000    -0.497455   
O90      O      0.728850000000     0.751070000000     0.507140000000    -0.506668   
O91      O      0.776520000000     0.716790000000     0.935330000000    -0.508226   
O92      O      0.717970000000     0.623830000000     0.939330000000    -0.50716    
O93      O      0.652310000000     0.729740000000     0.458680000000    -0.497085   
O94      O      0.728720000000     0.623700000000     0.498360000000    -0.494412   
O95      O      0.713380000000     0.709610000000     0.907310000000    -0.493155   
O96      O      0.650180000000     0.676330000000     0.998030000000    -0.509515   
O97      O      0.800310000000     0.230110000000     0.693970000000    -0.503498   
O98      O      0.836220000000     0.183990000000     0.660520000000    -0.493028   
O99      O      0.797920000000     0.182530000000     0.771850000000    -0.500075   
O100     O      0.814470000000     0.115020000000     0.714060000000    -0.498417   
O101     O      0.912200000000     0.207480000000     0.692710000000    -0.492808   
O102     O      0.878600000000     0.114800000000     0.740690000000    -0.504825   
O103     O      0.844440000000     0.236210000000     0.768300000000    -0.500401   
O104     O      0.918640000000     0.191500000000     0.750670000000    -0.489482   
O105     O      0.854020000000     0.776400000000     0.674350000000    -0.50693    
O106     O      0.814580000000     0.835100000000     0.667500000000    -0.490899   
O107     O      0.869050000000     0.796660000000     0.776430000000    -0.501945   
O108     O      0.930040000000     0.796930000000     0.719530000000    -0.498182   
O109     O      0.816850000000     0.892260000000     0.718700000000    -0.493718   
O110     O      0.923180000000     0.857840000000     0.689060000000    -0.505203   
O111     O      0.806620000000     0.788580000000     0.747900000000    -0.512384   
O112     O      0.877530000000     0.893400000000     0.750790000000    -0.506266   
O113     O      0.273350000000     0.826970000000     0.760840000000    -0.506412   
O114     O      0.212370000000     0.839230000000     0.789760000000    -0.496447   
O115     O      0.217190000000     0.808440000000     0.682210000000    -0.502356   
O116     O      0.151120000000     0.821810000000     0.734590000000    -0.496983   
O117     O      0.220000000000     0.928030000000     0.758670000000    -0.505402   
O118     O      0.147400000000     0.884170000000     0.706110000000    -0.505808   
O119     O      0.274300000000     0.850780000000     0.687760000000    -0.491764   
O120     O      0.235370000000     0.927020000000     0.700530000000    -0.499043   
O121     O      0.201420000000     0.232960000000     0.649300000000    -0.481067   
O122     O      0.262960000000     0.245140000000     0.678550000000    -0.496674   
O123     O      0.216660000000     0.279400000000     0.747980000000    -0.502669   
O124     O      0.138690000000     0.225130000000     0.745780000000    -0.498827   
O125     O      0.216040000000     0.148620000000     0.687480000000    -0.508993   
O126     O      0.136120000000     0.243150000000     0.688130000000    -0.487184   
O127     O      0.261060000000     0.224140000000     0.754710000000    -0.499542   
O128     O      0.196790000000     0.151660000000     0.744400000000    -0.499642   


