data_structure

_audit_creation_method RASPA-1.0
_audit_creation_date 2023-6-5
_audit_author_name 'Poobodin Mano'

_cell_length_a    29.1996
_cell_length_b    30.2961
_cell_length_c    35.6501
_cell_angle_alpha 89.5537
_cell_angle_beta  90.4463
_cell_angle_gamma 89.9991
_cell_volume      31535.4

_symmetry_cell_setting          triclinic
_symmetry_space_group_name_Hall 'P 1'
_symmetry_space_group_name_H-M  'P 1'
_symmetry_Int_Tables_number     1

_symmetry_equiv_pos_as_xyz 'x,y,z'

loop_
_atom_site_label
_atom_site_type_symbol
_atom_site_fract_x
_atom_site_fract_y
_atom_site_fract_z
_atom_site_charge
C1       C      0.330670000000     0.432740000000     0.984120000000     0.401894   
C2       C      0.327830000000     0.314400000000     0.410090000000     0.404079   
C3       C      0.451820000000     0.346040000000     0.476140000000     0.409768   
C4       C      0.316390000000     0.297280000000     0.026860000000     0.417981   
C5       C      0.340180000000     0.609690000000     0.477030000000     0.407081   
C6       C      0.324130000000     0.744900000000     0.021650000000     0.410886   
C7       C      0.454010000000     0.704520000000     0.966260000000     0.411854   
C8       C      0.321640000000     0.724020000000     0.401850000000     0.407156   
C9       C      0.636660000000     0.362240000000     0.972900000000     0.413271   
C10      C      0.770090000000     0.293340000000     0.429870000000     0.412967   
C11      C      0.754280000000     0.433200000000     0.463810000000     0.406723   
C12      C      0.748720000000     0.315070000000     0.047020000000     0.401515   
C13      C      0.733250000000     0.608520000000     0.962380000000     0.409629   
C14      C      0.765510000000     0.723410000000     0.395740000000     0.409466   
C15      C      0.639860000000     0.714360000000     0.475200000000     0.405727   
C16      C      0.775790000000     0.743440000000     0.014810000000     0.407713   
C17      C      0.855450000000     0.105950000000     0.229020000000     0.409649   
C18      C      0.824940000000     0.233210000000     0.295690000000     0.406739   
C19      C      0.953080000000     0.201580000000     0.233080000000     0.408325   
C20      C      0.815940000000     0.235630000000     0.176370000000     0.409018   
C21      C      0.959080000000     0.848440000000     0.212290000000     0.405305   
C22      C      0.832560000000     0.788900000000     0.264060000000     0.407811   
C23      C      0.842370000000     0.928830000000     0.214190000000     0.414052   
C24      C      0.833640000000     0.800830000000     0.148560000000     0.403961   
C25      C      0.141050000000     0.826230000000     0.219780000000     0.405629   
C26      C      0.271130000000     0.804760000000     0.155130000000     0.406013   
C27      C      0.239630000000     0.932610000000     0.200460000000     0.415557   
C28      C      0.274910000000     0.810110000000     0.275080000000     0.403076   
C29      C      0.135080000000     0.222450000000     0.232960000000     0.409295   
C30      C      0.270950000000     0.233200000000     0.281490000000     0.40888    
C31      C      0.228170000000     0.112030000000     0.211070000000     0.414525   
C32      C      0.261670000000     0.236550000000     0.160770000000     0.404801   
C33      C      0.282820000000     0.002240000000     0.207810000000    -0.00713194 
C34      C      0.213090000000     0.000120000000     0.167350000000     0.00889626 
C35      C      0.264540000000     0.042190000000     0.228610000000    -0.0126043  
C36      C      0.193960000000     0.041900000000     0.186090000000    -0.0579268  
C37      C      0.168520000000     0.068480000000     0.156420000000     0.3218     
C38      C      0.033150000000     0.841060000000     0.179710000000    -0.00878881 
C39      C      0.030930000000     0.860250000000     0.248330000000     0.00941981 
C40      C      0.068820000000     0.805360000000     0.188480000000    -0.0131386  
C41      C      0.066810000000     0.824070000000     0.256370000000    -0.0575639  
C42      C      0.093470000000     0.832950000000     0.292120000000     0.323036   
C43      C      0.868750000000     0.038680000000     0.192050000000    -0.00764166 
C44      C      0.843630000000     0.033330000000     0.259670000000     0.00902131 
C45      C      0.835970000000     0.001070000000     0.182350000000    -0.0134346  
C46      C      0.811210000000     0.995340000000     0.248800000000    -0.056915   
C47      C      0.801040000000     0.965930000000     0.282230000000     0.321574   
C48      C      0.028130000000     0.188740000000     0.264030000000    -0.0091484  
C49      C      0.023220000000     0.220460000000     0.198150000000     0.00875303 
C50      C      0.066530000000     0.221700000000     0.273000000000    -0.0130219  
C51      C      0.060130000000     0.254160000000     0.208990000000    -0.0547398  
C52      C      0.084590000000     0.272850000000     0.175100000000     0.321551   
C53      C      0.765850000000     0.754850000000     0.295290000000    -0.00673726 
C54      C      0.844840000000     0.731820000000     0.313110000000     0.00869011 
C55      C      0.753750000000     0.762330000000     0.336230000000    -0.013345   
C56      C      0.834030000000     0.736780000000     0.355140000000    -0.0571142  
C57      C      0.859620000000     0.700840000000     0.376360000000     0.32133    
C58      C      0.841330000000     0.748230000000     0.059040000000    -0.0100664  
C59      C      0.781130000000     0.807280000000     0.057650000000     0.000358659
C60      C      0.834580000000     0.741540000000     0.101220000000    -0.0111291  
C61      C      0.773600000000     0.801130000000     0.099990000000    -0.0310843  
C62      C      0.759770000000     0.844010000000     0.118300000000     0.227061   
C63      C      0.832010000000     0.287980000000     0.346620000000    -0.00993832 
C64      C      0.763410000000     0.237540000000     0.343050000000     0.00859028 
C65      C      0.835860000000     0.278370000000     0.388800000000    -0.0121232  
C66      C      0.768560000000     0.228160000000     0.385420000000    -0.0564097  
C67      C      0.723770000000     0.213210000000     0.402430000000     0.322482   
C68      C      0.787470000000     0.324750000000     0.108150000000    -0.00834092 
C69      C      0.729360000000     0.265410000000     0.100040000000     0.00788356 
C70      C      0.819940000000     0.292980000000     0.128180000000    -0.0123924  
C71      C      0.759190000000     0.232810000000     0.123270000000    -0.0576122  
C72      C      0.727500000000     0.204940000000     0.147110000000     0.321937   
C73      C      0.749400000000     0.539380000000     0.997200000000    -0.0101489  
C74      C      0.721580000000     0.537460000000     0.429790000000     0.00881013 
C75      C      0.784320000000     0.503450000000     0.988080000000    -0.0143583  
C76      C      0.757200000000     0.501270000000     0.421960000000    -0.056542   
C77      C      0.743740000000     0.473390000000     0.388590000000     0.322115   
C78      C      0.314160000000     0.720680000000     0.332690000000    -0.00901276 
C79      C      0.266640000000     0.773980000000     0.369640000000    -0.000100618
C80      C      0.328700000000     0.758040000000     0.306210000000    -0.0118272  
C81      C      0.281690000000     0.811900000000     0.343680000000    -0.0300057  
C82      C      0.244900000000     0.846980000000     0.340070000000     0.227952   
C83      C      0.331770000000     0.803330000000     0.107040000000    -0.00973276 
C84      C      0.273110000000     0.742540000000     0.110660000000     0.000946368
C85      C      0.322680000000     0.808390000000     0.064910000000    -0.0114498  
C86      C      0.263190000000     0.748000000000     0.068530000000    -0.0314213  
C87      C      0.248760000000     0.704610000000     0.051310000000     0.228047   
C88      C      0.568290000000     0.696420000000     0.508660000000    -0.00759837 
C89      C      0.569650000000     0.757910000000     0.961950000000     0.00845515 
C90      C      0.527640000000     0.675420000000     0.488550000000    -0.0137872  
C91      C      0.526860000000     0.739140000000     0.441920000000    -0.0585682  
C92      C      0.498970000000     0.777130000000     0.925990000000     0.321742   
C93      C      0.299670000000     0.224740000000     0.346540000000    -0.00714745 
C94      C      0.322080000000     0.290340000000     0.307990000000     0.00814741 
C95      C      0.286140000000     0.254730000000     0.378740000000    -0.0138709  
C96      C      0.310310000000     0.321330000000     0.340640000000    -0.0576931  
C97      C      0.340900000000     0.361650000000     0.338760000000     0.323223   
C98      C      0.260150000000     0.295070000000     0.112120000000    -0.0100795  
C99      C      0.321090000000     0.235990000000     0.111540000000     0.00848112 
C100     C      0.251860000000     0.287840000000     0.070210000000    -0.0117569  
C101     C      0.312130000000     0.229760000000     0.069320000000    -0.0555087  
C102     C      0.353290000000     0.210510000000     0.049730000000     0.321449   
C103     C      0.525160000000     0.352600000000     0.010960000000    -0.00940587 
C104     C      0.524060000000     0.331120000000     0.442810000000     0.00780323 
C105     C      0.564550000000     0.384660000000     0.002940000000    -0.010819   
C106     C      0.562550000000     0.364510000000     0.435230000000    -0.0555393  
C107     C      0.588990000000     0.352580000000     0.400370000000     0.324049   
C108     C      0.289470000000     0.498340000000     0.459580000000    -0.00873028 
C109     C      0.320330000000     0.498150000000     0.024370000000     0.00933742 
C110     C      0.315060000000     0.540490000000     0.449490000000    -0.010919   
C111     C      0.343940000000     0.543160000000     0.018200000000    -0.056404   
C112     C      0.335520000000     0.570960000000     0.052610000000     0.322827   
C113     C      0.330670000000     0.432740000000     0.484120000000     0.403237   
C114     C      0.327830000000     0.314400000000     0.910090000000     0.404226   
C115     C      0.451820000000     0.346040000000     0.976140000000     0.408474   
C116     C      0.316390000000     0.297280000000     0.526860000000     0.418018   
C117     C      0.340180000000     0.609690000000     0.977030000000     0.405722   
C118     C      0.324130000000     0.744900000000     0.521650000000     0.411038   
C119     C      0.454000000000     0.704530000000     0.466260000000     0.412037   
C120     C      0.321650000000     0.724020000000     0.901850000000     0.40712    
C121     C      0.636650000000     0.362240000000     0.472900000000     0.414466   
C122     C      0.770090000000     0.293340000000     0.929870000000     0.4129     
C123     C      0.754280000000     0.433200000000     0.963810000000     0.406731   
C124     C      0.748720000000     0.315070000000     0.547020000000     0.401297   
C125     C      0.733250000000     0.608520000000     0.462370000000     0.409836   
C126     C      0.765510000000     0.723410000000     0.895740000000     0.409419   
C127     C      0.639860000000     0.714360000000     0.975200000000     0.405727   
C128     C      0.775790000000     0.743440000000     0.514810000000     0.407866   
C129     C      0.855450000000     0.105950000000     0.729020000000     0.409654   
C130     C      0.824950000000     0.233210000000     0.795690000000     0.406841   
C131     C      0.953080000000     0.201580000000     0.733080000000     0.4086     
C132     C      0.815940000000     0.235630000000     0.676370000000     0.408989   
C133     C      0.959090000000     0.848440000000     0.712290000000     0.405325   
C134     C      0.832560000000     0.788900000000     0.764060000000     0.407804   
C135     C      0.842370000000     0.928830000000     0.714190000000     0.414053   
C136     C      0.833640000000     0.800820000000     0.648560000000     0.403673   
C137     C      0.141050000000     0.826230000000     0.719780000000     0.405569   
C138     C      0.271130000000     0.804760000000     0.655130000000     0.406247   
C139     C      0.239630000000     0.932610000000     0.700460000000     0.415745   
C140     C      0.274910000000     0.810110000000     0.775090000000     0.403036   
C141     C      0.135080000000     0.222450000000     0.732960000000     0.409299   
C142     C      0.270950000000     0.233200000000     0.781490000000     0.40912    
C143     C      0.228170000000     0.112030000000     0.711070000000     0.41452    
C144     C      0.261670000000     0.236550000000     0.660760000000     0.404759   
C145     C      0.282820000000     0.002240000000     0.707810000000    -0.0071155  
C146     C      0.213090000000     0.000120000000     0.667350000000     0.00893032 
C147     C      0.264540000000     0.042190000000     0.728610000000    -0.0126063  
C148     C      0.193960000000     0.041900000000     0.686090000000    -0.057977   
C149     C      0.168520000000     0.068480000000     0.656420000000     0.321804   
C150     C      0.033150000000     0.841060000000     0.679710000000    -0.00880456 
C151     C      0.030930000000     0.860250000000     0.748330000000     0.00944568 
C152     C      0.068820000000     0.805360000000     0.688480000000    -0.0131316  
C153     C      0.066810000000     0.824070000000     0.756370000000    -0.0575526  
C154     C      0.093470000000     0.832950000000     0.792120000000     0.32297    
C155     C      0.868750000000     0.038680000000     0.692050000000    -0.00767162 
C156     C      0.843630000000     0.033330000000     0.759680000000     0.00890629 
C157     C      0.835970000000     0.001070000000     0.682350000000    -0.0134161  
C158     C      0.811210000000     0.995340000000     0.748800000000    -0.0568716  
C159     C      0.801040000000     0.965930000000     0.782230000000     0.321522   
C160     C      0.028130000000     0.188740000000     0.764030000000    -0.00913504 
C161     C      0.023220000000     0.220460000000     0.698160000000     0.00890141 
C162     C      0.066530000000     0.221700000000     0.773000000000    -0.013002   
C163     C      0.060130000000     0.254160000000     0.708990000000    -0.0547976  
C164     C      0.084590000000     0.272850000000     0.675100000000     0.321558   
C165     C      0.765850000000     0.754850000000     0.795290000000    -0.00676625 
C166     C      0.844840000000     0.731820000000     0.813110000000     0.00867328 
C167     C      0.753750000000     0.762320000000     0.836230000000    -0.0132717  
C168     C      0.834030000000     0.736780000000     0.855140000000    -0.0571568  
C169     C      0.859630000000     0.700850000000     0.876360000000     0.321368   
C170     C      0.841330000000     0.748230000000     0.559040000000    -0.010049   
C171     C      0.781130000000     0.807280000000     0.557650000000     0.00038394 
C172     C      0.834580000000     0.741540000000     0.601220000000    -0.0111497  
C173     C      0.773600000000     0.801130000000     0.599990000000    -0.031105   
C174     C      0.759770000000     0.844010000000     0.618300000000     0.22704    
C175     C      0.832010000000     0.287980000000     0.846620000000    -0.00994782 
C176     C      0.763410000000     0.237540000000     0.843050000000     0.00863434 
C177     C      0.835860000000     0.278370000000     0.888800000000    -0.0121429  
C178     C      0.768550000000     0.228160000000     0.885420000000    -0.0564528  
C179     C      0.723770000000     0.213210000000     0.902430000000     0.322383   
C180     C      0.787470000000     0.324760000000     0.608150000000    -0.00843384 
C181     C      0.729360000000     0.265410000000     0.600040000000     0.00786308 
C182     C      0.819940000000     0.292980000000     0.628180000000    -0.0123529  
C183     C      0.759190000000     0.232810000000     0.623270000000    -0.0576368  
C184     C      0.727500000000     0.204940000000     0.647110000000     0.321937   
C185     C      0.749400000000     0.539380000000     0.497200000000    -0.00802813 
C186     C      0.721580000000     0.537460000000     0.929790000000     0.00870225 
C187     C      0.784320000000     0.503450000000     0.488080000000    -0.0138246  
C188     C      0.757200000000     0.501270000000     0.921960000000    -0.056457   
C189     C      0.743740000000     0.473390000000     0.888590000000     0.321913   
C190     C      0.314160000000     0.720680000000     0.832680000000    -0.00914856 
C191     C      0.266640000000     0.773970000000     0.869640000000    -3.19671e-05
C192     C      0.328700000000     0.758040000000     0.806210000000    -0.011758   
C193     C      0.281690000000     0.811900000000     0.843680000000    -0.0300155  
C194     C      0.244900000000     0.846980000000     0.840070000000     0.22793    
C195     C      0.331770000000     0.803330000000     0.607040000000    -0.00972487 
C196     C      0.273110000000     0.742540000000     0.610660000000     0.000951689
C197     C      0.322680000000     0.808380000000     0.564910000000    -0.0114197  
C198     C      0.263190000000     0.748000000000     0.568530000000    -0.0314058  
C199     C      0.248760000000     0.704610000000     0.551310000000     0.228021   
C200     C      0.568300000000     0.696430000000     0.008660000000    -0.00549472 
C201     C      0.569650000000     0.757910000000     0.461960000000     0.00840503 
C202     C      0.527640000000     0.675420000000     0.988550000000    -0.0160939  
C203     C      0.526860000000     0.739140000000     0.941930000000    -0.0586845  
C204     C      0.498960000000     0.777130000000     0.425990000000     0.321698   
C205     C      0.299670000000     0.224740000000     0.846540000000    -0.00715724 
C206     C      0.322080000000     0.290340000000     0.807990000000     0.00812151 
C207     C      0.286140000000     0.254730000000     0.878740000000    -0.0138462  
C208     C      0.310310000000     0.321330000000     0.840640000000    -0.0576451  
C209     C      0.340900000000     0.361650000000     0.838760000000     0.323064   
C210     C      0.260150000000     0.295070000000     0.612120000000    -0.0100769  
C211     C      0.321090000000     0.235990000000     0.611540000000     0.00849443 
C212     C      0.251860000000     0.287840000000     0.570210000000    -0.0117348  
C213     C      0.312130000000     0.229760000000     0.569310000000    -0.0555543  
C214     C      0.353290000000     0.210510000000     0.549730000000     0.321466   
C215     C      0.525160000000     0.352600000000     0.510960000000    -0.00964947 
C216     C      0.524060000000     0.331120000000     0.942810000000     0.0077172  
C217     C      0.564550000000     0.384660000000     0.502940000000    -0.0126012  
C218     C      0.562550000000     0.364510000000     0.935230000000    -0.0556086  
C219     C      0.588980000000     0.352590000000     0.900370000000     0.324003   
C220     C      0.289470000000     0.498340000000     0.959580000000    -0.00881058 
C221     C      0.320330000000     0.498150000000     0.524370000000     0.00874221 
C222     C      0.315060000000     0.540490000000     0.949490000000    -0.0110169  
C223     C      0.343940000000     0.543160000000     0.518200000000    -0.0569241  
C224     C      0.335520000000     0.570960000000     0.552610000000     0.32291    
H1       H      0.247700000000     0.030400000000     0.254710000000     0.0466199  
H2       H      0.305150000000     0.982590000000     0.227040000000     0.0523628  
H3       H      0.168980000000     0.030690000000     0.207620000000     0.0664979  
H4       H      0.294280000000     0.062810000000     0.237180000000     0.0556035  
H5       H      0.304160000000     0.014220000000     0.184110000000     0.0479446  
H6       H      0.232730000000     0.009850000000     0.141950000000     0.0514161  
H7       H      0.184100000000     0.978960000000     0.157950000000     0.0513675  
H8       H      0.176320000000     0.105080000000     0.108890000000     0.188223   
H9       H      0.050450000000     0.773810000000     0.193900000000     0.0478656  
H10      H      0.011820000000     0.830450000000     0.155450000000     0.0536461  
H11      H      0.046920000000     0.793170000000     0.261210000000     0.0668323  
H12      H      0.090690000000     0.800500000000     0.163470000000     0.0565397  
H13      H      0.051520000000     0.871730000000     0.171380000000     0.0472389  
H14      H      0.048840000000     0.892350000000     0.244450000000     0.0531893  
H15      H      0.007740000000     0.863340000000     0.272780000000     0.0557655  
H16      H      0.121500000000     0.880910000000     0.324550000000     0.189503   
H17      H      0.802400000000     0.015730000000     0.174130000000     0.0510726  
H18      H      0.870650000000     0.061670000000     0.167650000000     0.055071   
H19      H      0.778340000000     0.011360000000     0.240270000000     0.0681952  
H20      H      0.849250000000     0.983160000000     0.157610000000     0.0559539  
H21      H      0.903480000000     0.024520000000     0.196750000000     0.0461063  
H22      H      0.876330000000     0.019250000000     0.270620000000     0.0539065  
H23      H      0.827900000000     0.052850000000     0.282540000000     0.0551606  
H24      H      0.828520000000     0.936820000000     0.328760000000     0.190402   
H25      H      0.050760000000     0.251630000000     0.285330000000     0.0460277  
H26      H      0.007650000000     0.182940000000     0.289760000000     0.0518077  
H27      H      0.041460000000     0.282220000000     0.221930000000     0.0643531  
H28      H      0.089870000000     0.207010000000     0.294480000000     0.0526509  
H29      H      0.044130000000     0.156830000000     0.256220000000     0.0477369  
H30      H      0.039850000000     0.191790000000     0.184480000000     0.0589881  
H31      H      0.999110000000     0.235740000000     0.177520000000     0.0564167  
H32      H      0.105620000000     0.259710000000     0.122140000000     0.188896   
H33      H      0.757890000000     0.798050000000     0.342350000000     0.0507654  
H34      H      0.745280000000     0.777600000000     0.277260000000     0.0547301  
H35      H      0.847680000000     0.769420000000     0.364050000000     0.0690435  
H36      H      0.716910000000     0.754180000000     0.339890000000     0.0577153  
H37      H      0.756310000000     0.720430000000     0.287910000000     0.0462696  
H38      H      0.838310000000     0.697100000000     0.304540000000     0.0504828  
H39      H      0.881830000000     0.738700000000     0.308530000000     0.0538446  
H40      H      0.862590000000     0.634710000000     0.386000000000     0.187437   
H41      H      0.810190000000     0.713790000000     0.105440000000     0.045387   
H42      H      0.852250000000     0.716560000000     0.046350000000     0.0560259  
H43      H      0.744750000000     0.777440000000     0.103170000000     0.0566807  
H44      H      0.867810000000     0.732200000000     0.114490000000     0.0518533  
H45      H      0.869370000000     0.772590000000     0.054980000000     0.0476244  
H46      H      0.807000000000     0.833770000000     0.053320000000     0.0476292  
H47      H      0.748660000000     0.817950000000     0.043800000000     0.0617264  
H48      H      0.714600000000     0.895050000000     0.117470000000     0.1649     
H49      H      0.859420000000     0.249860000000     0.392910000000     0.0458512  
H50      H      0.866870000000     0.293680000000     0.335250000000     0.0537028  
H51      H      0.792750000000     0.199810000000     0.387860000000     0.0658626  
H52      H      0.851590000000     0.307270000000     0.402960000000     0.0546989  
H53      H      0.812080000000     0.318970000000     0.342660000000     0.0517812  
H54      H      0.738260000000     0.264740000000     0.338770000000     0.0554998  
H55      H      0.749770000000     0.207680000000     0.328830000000     0.055845   
H56      H      0.654700000000     0.221430000000     0.400900000000     0.196094   
H57      H      0.844560000000     0.279950000000     0.107350000000     0.0487605  
H58      H      0.807960000000     0.350290000000     0.093270000000     0.054093   
H59      H      0.776690000000     0.210860000000     0.102970000000     0.0695997  
H60      H      0.840020000000     0.312140000000     0.149110000000     0.0553063  
H61      H      0.766500000000     0.341700000000     0.129610000000     0.0471948  
H62      H      0.704040000000     0.281460000000     0.118740000000     0.0511967  
H63      H      0.709630000000     0.246580000000     0.078650000000     0.0547365  
H64      H      0.685830000000     0.205860000000     0.192460000000     0.190334   
H65      H      0.816580000000     0.519800000000     0.979090000000     0.0466647  
H66      H      0.764300000000     0.561450000000     0.018870000000     0.0539609  
H67      H      0.789180000000     0.519070000000     0.414140000000     0.0648837  
H68      H      0.792170000000     0.484000000000     0.013900000000     0.0562089  
H69      H      0.718620000000     0.523310000000     0.009390000000     0.0468534  
H70      H      0.688100000000     0.521600000000     0.436060000000     0.0540532  
H71      H      0.717000000000     0.558460000000     0.404300000000     0.0548193  
H72      H      0.690020000000     0.446810000000     0.360050000000     0.199744   
H73      H      0.362180000000     0.771080000000     0.316230000000     0.0472965  
H74      H      0.342150000000     0.695890000000     0.334770000000     0.0545352  
H75      H      0.312370000000     0.827200000000     0.356950000000     0.0582869  
H76      H      0.333560000000     0.744700000000     0.277550000000     0.0519823  
H77      H      0.283680000000     0.704170000000     0.320220000000     0.0465105  
H78      H      0.233810000000     0.760230000000     0.358790000000     0.0519591  
H79      H      0.260400000000     0.786840000000     0.398280000000     0.0638369  
H80      H      0.204260000000     0.889730000000     0.368190000000     0.160539   
H81      H      0.296970000000     0.835080000000     0.060660000000     0.0477559  
H82      H      0.341820000000     0.835860000000     0.118730000000     0.0534321  
H83      H      0.234160000000     0.771620000000     0.065700000000     0.0599466  
H84      H      0.354780000000     0.818460000000     0.050630000000     0.0545336  
H85      H      0.361150000000     0.780380000000     0.111030000000     0.0464907  
H86      H      0.299530000000     0.716410000000     0.114660000000     0.0469128  
H87      H      0.241500000000     0.731620000000     0.125270000000     0.062652   
H88      H      0.202450000000     0.654560000000     0.052640000000     0.165814   
H89      H      0.540910000000     0.650400000000     0.468710000000     0.0456798  
H90      H      0.589090000000     0.670180000000     0.522580000000     0.0514954  
H91      H      0.539510000000     0.719300000000     0.417980000000     0.0686895  
H92      H      0.506840000000     0.657580000000     0.509800000000     0.0561499  
H93      H      0.554960000000     0.718570000000     0.030800000000     0.0470187  
H94      H      0.558670000000     0.782440000000     0.983160000000     0.0529264  
H95      H      0.591430000000     0.775520000000     0.941190000000     0.0552908  
H96      H      0.472450000000     0.803120000000     0.877840000000     0.189382   
H97      H      0.248850000000     0.261780000000     0.376210000000     0.0472586  
H98      H      0.277970000000     0.194590000000     0.347160000000     0.0537472  
H99      H      0.274430000000     0.332500000000     0.335750000000     0.0686731  
H100     H      0.291620000000     0.236350000000     0.405510000000     0.0584721  
H101     H      0.335890000000     0.214420000000     0.350910000000     0.0486991  
H102     H      0.359140000000     0.281850000000     0.309480000000     0.0531485  
H103     H      0.315810000000     0.307790000000     0.280850000000     0.05309    
H104     H      0.340670000000     0.428670000000     0.336810000000     0.19062    
H105     H      0.224630000000     0.262440000000     0.066970000000     0.0462395  
H106     H      0.227370000000     0.304900000000     0.125330000000     0.0589301  
H107     H      0.284270000000     0.204730000000     0.067340000000     0.0656509  
H108     H      0.238940000000     0.318990000000     0.057300000000     0.0538203  
H109     H      0.284740000000     0.322820000000     0.115430000000     0.0487917  
H110     H      0.350020000000     0.259480000000     0.115290000000     0.0552121  
H111     H      0.331270000000     0.203900000000     0.124500000000     0.0557037  
H112     H      0.422850000000     0.209160000000     0.048660000000     0.190593   
H113     H      0.549600000000     0.417750000000     0.996870000000     0.0439898  
H114     H      0.503720000000     0.366210000000     0.033760000000     0.0536766  
H115     H      0.545100000000     0.396560000000     0.429250000000     0.0654525  
H116     H      0.586160000000     0.387600000000     0.028600000000     0.0528849  
H117     H      0.540080000000     0.320910000000     0.021180000000     0.0484522  
H118     H      0.539470000000     0.298050000000     0.448110000000     0.0556885  
H119     H      0.501570000000     0.328690000000     0.417570000000     0.0580921  
H120     H      0.615540000000     0.301780000000     0.370670000000     0.196802   
H121     H      0.346080000000     0.531530000000     0.433310000000     0.0468592  
H122     H      0.284370000000     0.478290000000     0.433890000000     0.055449   
H123     H      0.381410000000     0.536820000000     0.016220000000     0.0685777  
H124     H      0.292760000000     0.560550000000     0.430500000000     0.0537483  
H125     H      0.255140000000     0.507550000000     0.470370000000     0.0468682  
H126     H      0.285500000000     0.503420000000     0.036070000000     0.0485398  
H127     H      0.340130000000     0.478640000000     0.045520000000     0.0527829  
H128     H      0.288030000000     0.608030000000     0.079320000000     0.189157   
H129     H      0.247700000000     0.030400000000     0.754710000000     0.0465933  
H130     H      0.305150000000     0.982590000000     0.727040000000     0.0523283  
H131     H      0.168980000000     0.030690000000     0.707610000000     0.0665044  
H132     H      0.294280000000     0.062810000000     0.737180000000     0.0555753  
H133     H      0.304160000000     0.014220000000     0.684110000000     0.0479003  
H134     H      0.232730000000     0.009850000000     0.641950000000     0.0513495  
H135     H      0.184100000000     0.978960000000     0.657950000000     0.0513159  
H136     H      0.176320000000     0.105080000000     0.608890000000     0.188136   
H137     H      0.050450000000     0.773810000000     0.693910000000     0.047831   
H138     H      0.011820000000     0.830450000000     0.655450000000     0.0535965  
H139     H      0.046920000000     0.793170000000     0.761210000000     0.0668003  
H140     H      0.090690000000     0.800490000000     0.663470000000     0.056493   
H141     H      0.051520000000     0.871720000000     0.671380000000     0.0472159  
H142     H      0.048840000000     0.892350000000     0.744450000000     0.0531711  
H143     H      0.007740000000     0.863340000000     0.772780000000     0.0557274  
H144     H      0.121500000000     0.880910000000     0.824560000000     0.189318   
H145     H      0.802400000000     0.015730000000     0.674130000000     0.051027   
H146     H      0.870650000000     0.061670000000     0.667650000000     0.0550268  
H147     H      0.778340000000     0.011360000000     0.740270000000     0.068165   
H148     H      0.849250000000     0.983160000000     0.657610000000     0.0558974  
H149     H      0.903470000000     0.024520000000     0.696750000000     0.0460917  
H150     H      0.876330000000     0.019250000000     0.770620000000     0.0539084  
H151     H      0.827890000000     0.052850000000     0.782530000000     0.0551581  
H152     H      0.828520000000     0.936810000000     0.828760000000     0.190322   
H153     H      0.050760000000     0.251630000000     0.785340000000     0.0459763  
H154     H      0.007650000000     0.182940000000     0.789760000000     0.05176    
H155     H      0.041460000000     0.282220000000     0.721930000000     0.0643438  
H156     H      0.089870000000     0.207010000000     0.794480000000     0.0525989  
H157     H      0.044130000000     0.156830000000     0.756210000000     0.0477117  
H158     H      0.039850000000     0.191790000000     0.684470000000     0.0589122  
H159     H      0.999110000000     0.235740000000     0.677520000000     0.0563294  
H160     H      0.105620000000     0.259710000000     0.622140000000     0.188819   
H161     H      0.757900000000     0.798050000000     0.842350000000     0.0506956  
H162     H      0.745280000000     0.777600000000     0.777260000000     0.0547197  
H163     H      0.847680000000     0.769420000000     0.864040000000     0.0689849  
H164     H      0.716910000000     0.754180000000     0.839890000000     0.057673   
H165     H      0.756310000000     0.720430000000     0.787910000000     0.0462661  
H166     H      0.838320000000     0.697100000000     0.804540000000     0.0504681  
H167     H      0.881820000000     0.738700000000     0.808530000000     0.0538189  
H168     H      0.862590000000     0.634710000000     0.885990000000     0.187344   
H169     H      0.810190000000     0.713790000000     0.605430000000     0.0453317  
H170     H      0.852250000000     0.716570000000     0.546350000000     0.0558796  
H171     H      0.744750000000     0.777440000000     0.603170000000     0.0566262  
H172     H      0.867810000000     0.732200000000     0.614490000000     0.0518058  
H173     H      0.869370000000     0.772600000000     0.554970000000     0.0474941  
H174     H      0.807000000000     0.833770000000     0.553320000000     0.0475021  
H175     H      0.748660000000     0.817950000000     0.543800000000     0.0615781  
H176     H      0.714600000000     0.895050000000     0.617470000000     0.164832   
H177     H      0.859410000000     0.249860000000     0.892900000000     0.0457664  
H178     H      0.866870000000     0.293680000000     0.835250000000     0.0536746  
H179     H      0.792750000000     0.199810000000     0.887860000000     0.0657926  
H180     H      0.851590000000     0.307270000000     0.902960000000     0.0546153  
H181     H      0.812080000000     0.318970000000     0.842660000000     0.0517802  
H182     H      0.738250000000     0.264740000000     0.838770000000     0.0554958  
H183     H      0.749770000000     0.207680000000     0.828830000000     0.0558207  
H184     H      0.654700000000     0.221430000000     0.900900000000     0.195994   
H185     H      0.844560000000     0.279950000000     0.607350000000     0.0486539  
H186     H      0.807960000000     0.350290000000     0.593270000000     0.0540295  
H187     H      0.776680000000     0.210860000000     0.602970000000     0.0695084  
H188     H      0.840020000000     0.312140000000     0.649110000000     0.0552641  
H189     H      0.766500000000     0.341700000000     0.629610000000     0.0471941  
H190     H      0.704040000000     0.281460000000     0.618740000000     0.0511767  
H191     H      0.709640000000     0.246580000000     0.578650000000     0.0546364  
H192     H      0.685830000000     0.205860000000     0.692460000000     0.190313   
H193     H      0.816580000000     0.519800000000     0.479090000000     0.0467757  
H194     H      0.764300000000     0.561450000000     0.518870000000     0.0528323  
H195     H      0.789180000000     0.519070000000     0.914140000000     0.0648477  
H196     H      0.792170000000     0.484000000000     0.513900000000     0.0554306  
H197     H      0.718620000000     0.523310000000     0.509390000000     0.0456947  
H198     H      0.688110000000     0.521600000000     0.936060000000     0.0539834  
H199     H      0.717000000000     0.558450000000     0.904300000000     0.0548293  
H200     H      0.690020000000     0.446820000000     0.860050000000     0.199801   
H201     H      0.362180000000     0.771080000000     0.816230000000     0.0472671  
H202     H      0.342150000000     0.695890000000     0.834770000000     0.0545577  
H203     H      0.312370000000     0.827200000000     0.856960000000     0.0582297  
H204     H      0.333560000000     0.744700000000     0.777550000000     0.051956   
H205     H      0.283680000000     0.704180000000     0.820220000000     0.0465284  
H206     H      0.233810000000     0.760230000000     0.858790000000     0.0518848  
H207     H      0.260400000000     0.786840000000     0.898280000000     0.0636972  
H208     H      0.204260000000     0.889730000000     0.868190000000     0.160459   
H209     H      0.296970000000     0.835070000000     0.560660000000     0.0476202  
H210     H      0.341820000000     0.835860000000     0.618730000000     0.0533763  
H211     H      0.234160000000     0.771620000000     0.565700000000     0.0598362  
H212     H      0.354780000000     0.818460000000     0.550630000000     0.054372   
H213     H      0.361160000000     0.780380000000     0.611030000000     0.0464328  
H214     H      0.299530000000     0.716410000000     0.614660000000     0.0468974  
H215     H      0.241500000000     0.731620000000     0.625270000000     0.0626266  
H216     H      0.202450000000     0.654560000000     0.552640000000     0.165664   
H217     H      0.540910000000     0.650400000000     0.968710000000     0.0459814  
H218     H      0.589090000000     0.670190000000     0.022580000000     0.0513756  
H219     H      0.539510000000     0.719300000000     0.917980000000     0.0686951  
H220     H      0.506840000000     0.657580000000     0.009800000000     0.0573143  
H221     H      0.554960000000     0.718570000000     0.530800000000     0.0471743  
H222     H      0.558670000000     0.782440000000     0.483160000000     0.0532023  
H223     H      0.591430000000     0.775520000000     0.441190000000     0.0553814  
H224     H      0.472450000000     0.803120000000     0.377840000000     0.189421   
H225     H      0.248850000000     0.261780000000     0.876210000000     0.0471692  
H226     H      0.277970000000     0.194590000000     0.847150000000     0.0536878  
H227     H      0.274430000000     0.332500000000     0.835750000000     0.0686367  
H228     H      0.291620000000     0.236350000000     0.905510000000     0.0583182  
H229     H      0.335890000000     0.214420000000     0.850910000000     0.0486394  
H230     H      0.359140000000     0.281850000000     0.809480000000     0.0531353  
H231     H      0.315810000000     0.307790000000     0.780860000000     0.0530888  
H232     H      0.340670000000     0.428670000000     0.836810000000     0.190593   
H233     H      0.224630000000     0.262440000000     0.566970000000     0.0461244  
H234     H      0.227370000000     0.304900000000     0.625330000000     0.0588921  
H235     H      0.284270000000     0.204730000000     0.567340000000     0.0655785  
H236     H      0.238940000000     0.318990000000     0.557300000000     0.0536946  
H237     H      0.284740000000     0.322820000000     0.615430000000     0.0487667  
H238     H      0.350020000000     0.259480000000     0.615290000000     0.0551904  
H239     H      0.331270000000     0.203900000000     0.624500000000     0.0556688  
H240     H      0.422850000000     0.209160000000     0.548660000000     0.190439   
H241     H      0.549600000000     0.417750000000     0.496870000000     0.0450209  
H242     H      0.503720000000     0.366210000000     0.533760000000     0.0535524  
H243     H      0.545100000000     0.396560000000     0.929250000000     0.065392   
H244     H      0.586160000000     0.387600000000     0.528600000000     0.0530828  
H245     H      0.540080000000     0.320910000000     0.521180000000     0.0482532  
H246     H      0.539470000000     0.298050000000     0.948110000000     0.055523   
H247     H      0.501570000000     0.328690000000     0.917570000000     0.0580839  
H248     H      0.615530000000     0.301780000000     0.870670000000     0.196832   
H249     H      0.346080000000     0.531520000000     0.933310000000     0.0468125  
H250     H      0.284370000000     0.478290000000     0.933890000000     0.0554165  
H251     H      0.381410000000     0.536820000000     0.516210000000     0.0683993  
H252     H      0.292760000000     0.560550000000     0.930500000000     0.0537112  
H253     H      0.255140000000     0.507550000000     0.970370000000     0.046623   
H254     H      0.285500000000     0.503420000000     0.536060000000     0.0484381  
H255     H      0.340130000000     0.478640000000     0.545520000000     0.0528107  
H256     H      0.288030000000     0.608030000000     0.579320000000     0.189166   
In1      In     0.358840000000     0.348400000000     0.475270000000     2.41178    
In2      In     0.361370000000     0.695810000000     0.466190000000     2.41244    
In3      In     0.728300000000     0.348990000000     0.478340000000     2.41205    
In4      In     0.729060000000     0.697680000000     0.462020000000     2.41429    
In5      In     0.860820000000     0.194810000000     0.234010000000     2.40809    
In6      In     0.866830000000     0.842660000000     0.210350000000     2.41158    
In7      In     0.231480000000     0.844820000000     0.213530000000     2.40083    
In8      In     0.223850000000     0.200250000000     0.222480000000     2.41972    
In9      In     0.358840000000     0.348400000000     0.975270000000     2.40838    
In10     In     0.361370000000     0.695810000000     0.966190000000     2.41014    
In11     In     0.728300000000     0.348990000000     0.978340000000     2.40963    
In12     In     0.729060000000     0.697680000000     0.962020000000     2.41271    
In13     In     0.860820000000     0.194810000000     0.734010000000     2.40831    
In14     In     0.866830000000     0.842660000000     0.710350000000     2.41153    
In15     In     0.231480000000     0.844820000000     0.713530000000     2.40106    
In16     In     0.223850000000     0.200250000000     0.722480000000     2.41977    
N1       N      0.230540000000     0.067220000000     0.205930000000    -0.15324    
N2       N      0.244360000000     0.976600000000     0.192930000000    -0.169109   
N3       N      0.095020000000     0.817750000000     0.222320000000    -0.153191   
N4       N      0.005820000000     0.850040000000     0.213400000000    -0.167323   
N5       N      0.829750000000     0.972430000000     0.215520000000    -0.153886   
N6       N      0.854160000000     0.060980000000     0.226590000000    -0.167234   
N7       N      0.090200000000     0.234030000000     0.238130000000    -0.153796   
N8       N      0.999730000000     0.204550000000     0.232190000000    -0.167254   
N9       N      0.783730000000     0.736890000000     0.362180000000    -0.152169   
N10      N      0.815220000000     0.760630000000     0.290330000000    -0.167542   
N11      N      0.815030000000     0.781720000000     0.117590000000    -0.162897   
N12      N      0.798950000000     0.765890000000     0.042050000000    -0.166138   
N13      N      0.790390000000     0.266830000000     0.403680000000    -0.154429   
N14      N      0.807700000000     0.251790000000     0.327450000000    -0.167228   
N15      N      0.795610000000     0.255330000000     0.145590000000    -0.151809   
N16      N      0.757030000000     0.300410000000     0.082820000000    -0.16573    
N17      N      0.766350000000     0.476310000000     0.457200000000    -0.153205   
N18      N      0.735660000000     0.563490000000     0.962780000000    -0.16812    
N19      N      0.294710000000     0.793830000000     0.306950000000    -0.162625   
N20      N      0.301560000000     0.738810000000     0.369400000000    -0.164749   
N21      N      0.303890000000     0.766980000000     0.050130000000    -0.162225   
N22      N      0.291250000000     0.784330000000     0.125540000000    -0.16488    
N23      N      0.500860000000     0.708650000000     0.967030000000    -0.154149   
N24      N      0.594640000000     0.722540000000     0.481630000000    -0.166804   
N25      N      0.311450000000     0.296990000000     0.377170000000    -0.151095   
N26      N      0.295800000000     0.249160000000     0.310970000000    -0.168175   
N27      N      0.294460000000     0.271790000000     0.053100000000    -0.154827   
N28      N      0.280160000000     0.254960000000     0.129280000000    -0.165807   
N29      N      0.590430000000     0.369890000000     0.969940000000    -0.154915   
N30      N      0.498550000000     0.344190000000     0.476460000000    -0.168463   
N31      N      0.329560000000     0.566050000000     0.482760000000    -0.151545   
N32      N      0.315040000000     0.474750000000     0.988890000000    -0.166952   
N33      N      0.230540000000     0.067220000000     0.705930000000    -0.153238   
N34      N      0.244360000000     0.976600000000     0.692930000000    -0.169161   
N35      N      0.095020000000     0.817760000000     0.722320000000    -0.153194   
N36      N      0.005820000000     0.850050000000     0.713400000000    -0.167385   
N37      N      0.829750000000     0.972430000000     0.715520000000    -0.153898   
N38      N      0.854160000000     0.060980000000     0.726590000000    -0.167219   
N39      N      0.090200000000     0.234030000000     0.738130000000    -0.153796   
N40      N      0.999730000000     0.204550000000     0.732190000000    -0.167338   
N41      N      0.783730000000     0.736900000000     0.862180000000    -0.152173   
N42      N      0.815220000000     0.760630000000     0.790330000000    -0.167543   
N43      N      0.815030000000     0.781720000000     0.617590000000    -0.16288    
N44      N      0.798950000000     0.765890000000     0.542050000000    -0.166244   
N45      N      0.790390000000     0.266830000000     0.903680000000    -0.154449   
N46      N      0.807700000000     0.251790000000     0.827440000000    -0.167273   
N47      N      0.795610000000     0.255330000000     0.645590000000    -0.151819   
N48      N      0.757030000000     0.300410000000     0.582820000000    -0.16572    
N49      N      0.766360000000     0.476310000000     0.957200000000    -0.153226   
N50      N      0.735660000000     0.563490000000     0.462780000000    -0.168324   
N51      N      0.294710000000     0.793830000000     0.806950000000    -0.162685   
N52      N      0.301560000000     0.738820000000     0.869400000000    -0.164722   
N53      N      0.303890000000     0.766970000000     0.550130000000    -0.16234    
N54      N      0.291250000000     0.784330000000     0.625550000000    -0.164973   
N55      N      0.500860000000     0.708660000000     0.467030000000    -0.154284   
N56      N      0.594640000000     0.722540000000     0.981630000000    -0.16741    
N57      N      0.311450000000     0.296990000000     0.877170000000    -0.151156   
N58      N      0.295800000000     0.249160000000     0.810970000000    -0.168221   
N59      N      0.294460000000     0.271790000000     0.553110000000    -0.154849   
N60      N      0.280160000000     0.254960000000     0.629280000000    -0.165862   
N61      N      0.590430000000     0.369890000000     0.469940000000    -0.154591   
N62      N      0.498550000000     0.344190000000     0.976460000000    -0.168674   
N63      N      0.329560000000     0.566050000000     0.982760000000    -0.151812   
N64      N      0.315040000000     0.474750000000     0.488890000000    -0.166669   
O1       O      0.299070000000     0.332350000000     0.013680000000    -0.505391   
O2       O      0.355330000000     0.288170000000     0.013960000000    -0.484474   
O3       O      0.344000000000     0.352900000000     0.412660000000    -0.467355   
O4       O      0.323480000000     0.411320000000     0.454510000000    -0.487312   
O5       O      0.428730000000     0.355700000000     0.004600000000    -0.495117   
O6       O      0.352740000000     0.411980000000     0.009170000000    -0.494563   
O7       O      0.327250000000     0.293160000000     0.440730000000    -0.492887   
O8       O      0.428210000000     0.337900000000     0.447350000000    -0.500669   
O9       O      0.352690000000     0.694900000000     0.402450000000    -0.487276   
O10      O      0.310700000000     0.738590000000     0.433610000000    -0.499931   
O11      O      0.308340000000     0.709150000000     0.009640000000    -0.48457    
O12      O      0.360060000000     0.632910000000     0.001390000000    -0.477687   
O13      O      0.428140000000     0.726450000000     0.444680000000    -0.48854    
O14      O      0.331610000000     0.629830000000     0.446630000000    -0.492918   
O15      O      0.360160000000     0.757440000000     0.005370000000    -0.4753     
O16      O      0.433010000000     0.677780000000     0.987140000000    -0.501832   
O17      O      0.717900000000     0.298890000000     0.026220000000    -0.491346   
O18      O      0.769990000000     0.347190000000     0.032710000000    -0.488856   
O19      O      0.730270000000     0.287100000000     0.442080000000    -0.482158   
O20      O      0.660510000000     0.347940000000     0.446370000000    -0.479313   
O21      O      0.760410000000     0.414610000000     0.995240000000    -0.488236   
O22      O      0.659090000000     0.369230000000     0.002650000000    -0.501726   
O23      O      0.789480000000     0.327080000000     0.443090000000    -0.502667   
O24      O      0.735420000000     0.408990000000     0.439630000000    -0.481951   
O25      O      0.789260000000     0.706850000000     0.002450000000    -0.488946   
O26      O      0.738880000000     0.757260000000     0.000380000000    -0.502064   
O27      O      0.722980000000     0.722870000000     0.401680000000    -0.489938   
O28      O      0.721050000000     0.630470000000     0.433770000000    -0.501652   
O29      O      0.663110000000     0.736570000000     0.952090000000    -0.485397   
O30      O      0.742910000000     0.631490000000     0.990710000000    -0.495021   
O31      O      0.789560000000     0.711420000000     0.423500000000    -0.492795   
O32      O      0.661660000000     0.683900000000     0.491840000000    -0.504215   
O33      O      0.804790000000     0.198010000000     0.188640000000    -0.485103   
O34      O      0.849140000000     0.252870000000     0.193760000000    -0.494849   
O35      O      0.804660000000     0.202860000000     0.278080000000    -0.492785   
O36      O      0.845940000000     0.126360000000     0.258690000000    -0.492434   
O37      O      0.927960000000     0.213460000000     0.205880000000    -0.493814   
O38      O      0.867080000000     0.130350000000     0.201900000000    -0.498503   
O39      O      0.862750000000     0.244700000000     0.281820000000    -0.500282   
O40      O      0.931690000000     0.186440000000     0.260980000000    -0.497879   
O41      O      0.867960000000     0.785880000000     0.166260000000    -0.475301   
O42      O      0.817600000000     0.835640000000     0.162020000000    -0.482965   
O43      O      0.874840000000     0.792060000000     0.257710000000    -0.498367   
O44      O      0.934690000000     0.855170000000     0.240760000000    -0.49393    
O45      O      0.859460000000     0.911840000000     0.185290000000    -0.499691   
O46      O      0.936900000000     0.839440000000     0.182800000000    -0.498387   
O47      O      0.807530000000     0.813380000000     0.243780000000    -0.494879   
O48      O      0.837980000000     0.902240000000     0.241280000000    -0.485744   
O49      O      0.282720000000     0.795770000000     0.242680000000    -0.479867   
O50      O      0.246120000000     0.840810000000     0.275750000000    -0.473832   
O51      O      0.237370000000     0.788340000000     0.172280000000    -0.486398   
O52      O      0.162880000000     0.821640000000     0.189680000000    -0.48659    
O53      O      0.266910000000     0.911540000000     0.221530000000    -0.500052   
O54      O      0.165080000000     0.839940000000     0.246760000000    -0.480657   
O55      O      0.284900000000     0.841450000000     0.167510000000    -0.501218   
O56      O      0.208060000000     0.909610000000     0.186370000000    -0.507396   
O57      O      0.227870000000     0.253330000000     0.177250000000    -0.481325   
O58      O      0.276850000000     0.201440000000     0.175600000000    -0.495886   
O59      O      0.249350000000     0.197220000000     0.283120000000    -0.495849   
O60      O      0.159960000000     0.206920000000     0.259000000000    -0.499905   
O61      O      0.195020000000     0.135450000000     0.199870000000    -0.495196   
O62      O      0.154940000000     0.225890000000     0.201870000000    -0.47776    
O63      O      0.268250000000     0.252960000000     0.250310000000    -0.504187   
O64      O      0.258840000000     0.133250000000     0.228290000000    -0.4987     
O65      O      0.126870000000     0.072040000000     0.157830000000    -0.238549   
O66      O      0.191820000000     0.087900000000     0.128150000000    -0.334087   
O67      O      0.106980000000     0.802000000000     0.311420000000    -0.234823   
O68      O      0.103790000000     0.874740000000     0.302140000000    -0.332683   
O69      O      0.762840000000     0.949990000000     0.285760000000    -0.232514   
O70      O      0.834280000000     0.956070000000     0.307530000000    -0.332822   
O71      O      0.101270000000     0.309810000000     0.176540000000    -0.234958   
O72      O      0.089420000000     0.248470000000     0.143780000000    -0.329347   
O73      O      0.892250000000     0.710320000000     0.396440000000    -0.23506    
O74      O      0.846790000000     0.658240000000     0.372710000000    -0.334132   
O75      O      0.782420000000     0.858090000000     0.148190000000    -0.0970074  
O76      O      0.724510000000     0.866560000000     0.105240000000    -0.306835   
O77      O      0.724110000000     0.186620000000     0.428390000000    -0.232701   
O78      O      0.683570000000     0.230130000000     0.389940000000    -0.331776   
O79      O      0.720500000000     0.166360000000     0.139090000000    -0.234971   
O80      O      0.706320000000     0.222970000000     0.176870000000    -0.33435    
O81      O      0.773500000000     0.457100000000     0.369150000000    -0.235595   
O82      O      0.699160000000     0.465160000000     0.380910000000    -0.329806   
O83      O      0.229870000000     0.859170000000     0.306440000000    -0.0929493  
O84      O      0.228630000000     0.866000000000     0.370220000000    -0.305166   
O85      O      0.272310000000     0.688160000000     0.023130000000    -0.0949226  
O86      O      0.212570000000     0.683560000000     0.064000000000    -0.308419   
O87      O      0.483810000000     0.805510000000     0.946720000000    -0.234516   
O88      O      0.490450000000     0.779390000000     0.888740000000    -0.334914   
O89      O      0.382580000000     0.357600000000     0.338790000000    -0.231508   
O90      O      0.321970000000     0.402310000000     0.337660000000    -0.332365   
O91      O      0.347620000000     0.186630000000     0.022610000000    -0.233214   
O92      O      0.396190000000     0.220690000000     0.061240000000    -0.332145   
O93      O      0.603300000000     0.381850000000     0.379770000000    -0.233513   
O94      O      0.598130000000     0.309920000000     0.392550000000    -0.330982   
O95      O      0.365660000000     0.575210000000     0.076290000000    -0.237404   
O96      O      0.294290000000     0.590210000000     0.057540000000    -0.332581   
O97      O      0.299070000000     0.332350000000     0.513680000000    -0.506143   
O98      O      0.355330000000     0.288170000000     0.513950000000    -0.485215   
O99      O      0.344000000000     0.352900000000     0.912660000000    -0.467161   
O100     O      0.323480000000     0.411320000000     0.954510000000    -0.486843   
O101     O      0.428720000000     0.355700000000     0.504600000000    -0.49656    
O102     O      0.352740000000     0.411980000000     0.509170000000    -0.49595    
O103     O      0.327250000000     0.293160000000     0.940720000000    -0.492964   
O104     O      0.428210000000     0.337900000000     0.947350000000    -0.500203   
O105     O      0.352690000000     0.694900000000     0.902450000000    -0.487153   
O106     O      0.310700000000     0.738590000000     0.933610000000    -0.499986   
O107     O      0.308340000000     0.709150000000     0.509640000000    -0.48519    
O108     O      0.360060000000     0.632910000000     0.501390000000    -0.479086   
O109     O      0.428140000000     0.726450000000     0.944680000000    -0.48831    
O110     O      0.331610000000     0.629830000000     0.946630000000    -0.492528   
O111     O      0.360160000000     0.757440000000     0.505370000000    -0.476081   
O112     O      0.433010000000     0.677780000000     0.487140000000    -0.501564   
O113     O      0.717890000000     0.298890000000     0.526220000000    -0.491877   
O114     O      0.769990000000     0.347200000000     0.532710000000    -0.489452   
O115     O      0.730270000000     0.287100000000     0.942080000000    -0.482091   
O116     O      0.660510000000     0.347940000000     0.946370000000    -0.478954   
O117     O      0.760420000000     0.414610000000     0.495240000000    -0.487824   
O118     O      0.659100000000     0.369230000000     0.502650000000    -0.503107   
O119     O      0.789480000000     0.327080000000     0.943090000000    -0.502596   
O120     O      0.735420000000     0.409000000000     0.939630000000    -0.481746   
O121     O      0.789260000000     0.706850000000     0.502460000000    -0.489657   
O122     O      0.738880000000     0.757260000000     0.500380000000    -0.502815   
O123     O      0.722980000000     0.722870000000     0.901680000000    -0.489836   
O124     O      0.721040000000     0.630470000000     0.933770000000    -0.501376   
O125     O      0.663110000000     0.736570000000     0.452090000000    -0.485347   
O126     O      0.742910000000     0.631490000000     0.490710000000    -0.494673   
O127     O      0.789560000000     0.711420000000     0.923500000000    -0.492845   
O128     O      0.661650000000     0.683900000000     0.991840000000    -0.504442   
O129     O      0.804790000000     0.198010000000     0.688650000000    -0.485186   
O130     O      0.849140000000     0.252870000000     0.693760000000    -0.494856   
O131     O      0.804660000000     0.202860000000     0.778080000000    -0.492796   
O132     O      0.845940000000     0.126360000000     0.758690000000    -0.492476   
O133     O      0.927960000000     0.213460000000     0.705890000000    -0.494064   
O134     O      0.867080000000     0.130350000000     0.701900000000    -0.498551   
O135     O      0.862750000000     0.244700000000     0.781820000000    -0.500405   
O136     O      0.931690000000     0.186440000000     0.760980000000    -0.497987   
O137     O      0.867970000000     0.785890000000     0.666260000000    -0.47531    
O138     O      0.817600000000     0.835650000000     0.662020000000    -0.482748   
O139     O      0.874840000000     0.792060000000     0.757710000000    -0.498393   
O140     O      0.934700000000     0.855170000000     0.740760000000    -0.493864   
O141     O      0.859460000000     0.911840000000     0.685290000000    -0.499711   
O142     O      0.936900000000     0.839440000000     0.682800000000    -0.498371   
O143     O      0.807530000000     0.813380000000     0.743780000000    -0.494895   
O144     O      0.837980000000     0.902240000000     0.741280000000    -0.485758   
O145     O      0.282720000000     0.795770000000     0.742680000000    -0.4798     
O146     O      0.246120000000     0.840810000000     0.775750000000    -0.473846   
O147     O      0.237370000000     0.788350000000     0.672280000000    -0.486614   
O148     O      0.162880000000     0.821640000000     0.689680000000    -0.486603   
O149     O      0.266900000000     0.911540000000     0.721530000000    -0.50023    
O150     O      0.165080000000     0.839950000000     0.746760000000    -0.480641   
O151     O      0.284900000000     0.841450000000     0.667510000000    -0.501317   
O152     O      0.208060000000     0.909610000000     0.686370000000    -0.507476   
O153     O      0.227870000000     0.253330000000     0.677250000000    -0.481288   
O154     O      0.276850000000     0.201440000000     0.675600000000    -0.495866   
O155     O      0.249350000000     0.197220000000     0.783120000000    -0.495945   
O156     O      0.159960000000     0.206920000000     0.759000000000    -0.499929   
O157     O      0.195020000000     0.135450000000     0.699870000000    -0.495213   
O158     O      0.154940000000     0.225890000000     0.701870000000    -0.477776   
O159     O      0.268240000000     0.252960000000     0.750320000000    -0.504338   
O160     O      0.258840000000     0.133250000000     0.728290000000    -0.498726   
O161     O      0.126870000000     0.072040000000     0.657830000000    -0.238617   
O162     O      0.191820000000     0.087900000000     0.628150000000    -0.33413    
O163     O      0.106980000000     0.802000000000     0.811420000000    -0.23488    
O164     O      0.103790000000     0.874740000000     0.802140000000    -0.332546   
O165     O      0.762840000000     0.949990000000     0.785760000000    -0.232554   
O166     O      0.834280000000     0.956060000000     0.807530000000    -0.332822   
O167     O      0.101270000000     0.309810000000     0.676540000000    -0.23502    
O168     O      0.089420000000     0.248470000000     0.643780000000    -0.329393   
O169     O      0.892250000000     0.710320000000     0.896430000000    -0.235377   
O170     O      0.846780000000     0.658240000000     0.872710000000    -0.334071   
O171     O      0.782420000000     0.858090000000     0.648190000000    -0.097034   
O172     O      0.724510000000     0.866560000000     0.605240000000    -0.306926   
O173     O      0.724110000000     0.186620000000     0.928400000000    -0.232856   
O174     O      0.683570000000     0.230130000000     0.889940000000    -0.331765   
O175     O      0.720500000000     0.166360000000     0.639090000000    -0.235073   
O176     O      0.706320000000     0.222970000000     0.676870000000    -0.334357   
O177     O      0.773510000000     0.457100000000     0.869150000000    -0.235534   
O178     O      0.699150000000     0.465160000000     0.880910000000    -0.329829   
O179     O      0.229870000000     0.859170000000     0.806440000000    -0.092962   
O180     O      0.228630000000     0.866000000000     0.870220000000    -0.305267   
O181     O      0.272310000000     0.688160000000     0.523140000000    -0.0951199  
O182     O      0.212570000000     0.683560000000     0.564000000000    -0.308494   
O183     O      0.483810000000     0.805510000000     0.446730000000    -0.234252   
O184     O      0.490450000000     0.779390000000     0.388740000000    -0.334894   
O185     O      0.382590000000     0.357600000000     0.838790000000    -0.231421   
O186     O      0.321970000000     0.402310000000     0.837660000000    -0.332346   
O187     O      0.347620000000     0.186630000000     0.522610000000    -0.233532   
O188     O      0.396190000000     0.220690000000     0.561240000000    -0.3322     
O189     O      0.603300000000     0.381850000000     0.879770000000    -0.233527   
O190     O      0.598130000000     0.309920000000     0.892550000000    -0.330998   
O191     O      0.365660000000     0.575210000000     0.576290000000    -0.237507   
O192     O      0.294290000000     0.590210000000     0.557540000000    -0.332782   


