data_structure

_audit_creation_method RASPA-1.0
_audit_creation_date 2023-5-22
_audit_author_name 'Poobodin Mano'

_cell_length_a    46.0225
_cell_length_b    45.5494
_cell_length_c    26.1077
_cell_angle_alpha 90.0158
_cell_angle_beta  89.9853
_cell_angle_gamma 120.357
_cell_volume      47225.7

_symmetry_cell_setting          triclinic
_symmetry_space_group_name_Hall 'P 1'
_symmetry_space_group_name_H-M  'P 1'
_symmetry_Int_Tables_number     1

_symmetry_equiv_pos_as_xyz 'x,y,z'

loop_
_atom_site_label
_atom_site_type_symbol
_atom_site_fract_x
_atom_site_fract_y
_atom_site_fract_z
_atom_site_charge
C1       C      0.414050000000     0.587720000000     0.205150000000     0.399143   
C2       C      0.451810000000     0.552790000000     0.065290000000     0.400314   
C3       C      0.379830000000     0.581350000000     0.048760000000     0.406462   
C4       C      0.490030000000     0.658140000000     0.115140000000     0.407771   
C5       C      0.622630000000     0.489850000000     0.967870000000     0.403918   
C6       C      0.528370000000     0.496150000000     0.038790000000     0.402479   
C7       C      0.530570000000     0.407490000000     0.997920000000     0.401934   
C8       C      0.603700000000     0.495250000000     0.121470000000     0.405524   
C9       C      0.962350000000     0.842820000000     0.105260000000     0.402073   
C10      C      0.907530000000     0.762040000000     0.231140000000     0.401943   
C11      C      0.986290000000     0.865030000000     0.262060000000     0.40517    
C12      C      0.881810000000     0.838240000000     0.190350000000     0.411402   
C13      C      0.747440000000     0.563850000000     0.398760000000     0.414178   
C14      C      0.812380000000     0.633800000000     0.276850000000     0.405239   
C15      C      0.801760000000     0.535210000000     0.283790000000     0.406356   
C16      C      0.712660000000     0.543350000000     0.239960000000     0.40429    
C17      C      0.310470000000     0.807990000000     0.271020000000     0.400897   
C18      C      0.246010000000     0.824600000000     0.393540000000     0.402539   
C19      C      0.227000000000     0.726280000000     0.343970000000     0.408242   
C20      C      0.326530000000     0.807780000000     0.429770000000     0.405094   
C21      C      0.085850000000     0.865550000000     0.555730000000     0.409384   
C22      C      0.159790000000     0.867700000000     0.444780000000     0.401029   
C23      C      0.081160000000     0.892540000000     0.403840000000     0.402356   
C24      C      0.171780000000     0.963880000000     0.501540000000     0.412346   
C25      C      0.632340000000     0.159350000000     0.417770000000     0.39924    
C26      C      0.579450000000     0.086070000000     0.550600000000     0.398577   
C27      C      0.650120000000     0.192260000000     0.574300000000     0.406427   
C28      C      0.547820000000     0.155300000000     0.488710000000     0.413143   
C29      C      0.420910000000     0.884550000000     0.713960000000     0.411096   
C30      C      0.502650000000     0.954570000000     0.610880000000     0.399551   
C31      C      0.508700000000     0.870490000000     0.679330000000     0.412367   
C32      C      0.426110000000     0.849310000000     0.565730000000     0.404868   
C33      C      0.969680000000     0.143710000000     0.565760000000     0.406254   
C34      C      0.895890000000     0.141430000000     0.688590000000     0.405972   
C35      C      0.896470000000     0.052220000000     0.636890000000     0.405055   
C36      C      0.987790000000     0.139800000000     0.725010000000     0.402866   
C37      C      0.764920000000     0.214800000000     0.868540000000     0.407055   
C38      C      0.832730000000     0.209490000000     0.750540000000     0.401707   
C39      C      0.748390000000     0.224770000000     0.709680000000     0.404056   
C40      C      0.841520000000     0.307580000000     0.786520000000     0.413911   
C41      C      0.294940000000     0.506350000000     0.777650000000     0.40524    
C42      C      0.211040000000     0.427640000000     0.872620000000     0.402402   
C43      C      0.277370000000     0.536360000000     0.922710000000     0.410182   
C44      C      0.198050000000     0.501980000000     0.794700000000     0.412464   
C45      C      0.078860000000     0.215420000000     0.049280000000     0.401063   
C46      C      0.153520000000     0.298370000000     0.945400000000     0.400563   
C47      C      0.166630000000     0.216560000000     0.983230000000     0.414323   
C48      C      0.074820000000     0.199570000000     0.884280000000     0.409901   
C49      C      0.908050000000     0.824120000000     0.597770000000     0.399867   
C50      C      0.881600000000     0.744330000000     0.726690000000     0.400149   
C51      C      0.983810000000     0.814380000000     0.676730000000     0.411033   
C52      C      0.913180000000     0.847800000000     0.756190000000     0.405479   
C53      C      0.833480000000     0.557610000000     0.874770000000     0.409872   
C54      C      0.802480000000     0.619040000000     0.796040000000     0.403146   
C55      C      0.791600000000     0.524260000000     0.720040000000     0.407003   
C56      C      0.722200000000     0.519370000000     0.837550000000     0.405495   
C57      C      0.217380000000     0.158970000000     0.099820000000     0.409155   
C58      C      0.292650000000     0.148050000000     0.194340000000     0.403073   
C59      C      0.196530000000     0.131700000000     0.258470000000     0.406714   
C60      C      0.200790000000     0.057970000000     0.146240000000     0.410328   
C61      C      0.488800000000     0.197100000000     0.364110000000     0.413689   
C62      C      0.423740000000     0.209400000000     0.256180000000     0.403923   
C63      C      0.519940000000     0.299350000000     0.296950000000     0.405144   
C64      C      0.520780000000     0.219600000000     0.202270000000     0.405217   
C65      C      0.850870000000     0.485090000000     0.401710000000     0.399438   
C66      C      0.933550000000     0.495830000000     0.519310000000     0.402728   
C67      C      0.841890000000     0.484160000000     0.566650000000     0.407215   
C68      C      0.852720000000     0.403520000000     0.460860000000     0.404445   
C69      C      0.127480000000     0.533760000000     0.673740000000     0.408506   
C70      C      0.064050000000     0.539380000000     0.554130000000     0.407237   
C71      C      0.145520000000     0.633390000000     0.625390000000     0.409444   
C72      C      0.170860000000     0.571890000000     0.522180000000     0.40926    
C73      C      0.184190000000     0.237980000000     0.548530000000     0.408313   
C74      C      0.176570000000     0.303200000000     0.426790000000     0.409727   
C75      C      0.169310000000     0.204510000000     0.390310000000     0.402958   
C76      C      0.087560000000     0.206590000000     0.478310000000     0.407904   
C77      C      0.240410000000     0.498690000000     0.240400000000     0.405675   
C78      C      0.242590000000     0.435180000000     0.368620000000     0.408959   
C79      C      0.327920000000     0.540020000000     0.341250000000     0.412386   
C80      C      0.230090000000     0.523110000000     0.399490000000     0.405996   
C81      C      0.496460000000     0.868240000000     0.223840000000     0.402201   
C82      C      0.503270000000     0.943300000000     0.102680000000     0.40523    
C83      C      0.495680000000     0.846400000000     0.064690000000     0.406638   
C84      C      0.408170000000     0.851840000000     0.139980000000     0.409166   
C85      C      0.585240000000     0.158860000000     0.926780000000     0.404942   
C86      C      0.578440000000     0.074810000000     0.042490000000     0.404944   
C87      C      0.668970000000     0.162510000000     0.003160000000     0.403558   
C88      C      0.575030000000     0.162210000000     0.084780000000     0.405043   
C89      C      0.844450000000     0.887620000000     0.050490000000     0.399198   
C90      C      0.778790000000     0.881380000000     0.923220000000     0.398936   
C91      C      0.856600000000     0.979060000000     0.988250000000     0.409506   
C92      C      0.884380000000     0.916390000000     0.889050000000     0.414837   
C93      C      0.576040000000     0.823130000000     0.778770000000     0.404242   
C94      C      0.644960000000     0.820810000000     0.892190000000     0.403628   
C95      C      0.539170000000     0.786960000000     0.934880000000     0.413517   
C96      C      0.563520000000     0.725520000000     0.828390000000     0.410909   
C97      C      0.180580000000     0.635700000000     0.200800000000     0.402482   
C98      C      0.105170000000     0.567270000000     0.081200000000     0.404126   
C99      C      0.204650000000     0.650240000000     0.039690000000     0.403962   
C100     C      0.192660000000     0.558340000000     0.131860000000     0.40977    
C101     C      0.893320000000     0.410530000000     0.910940000000     0.405339   
C102     C      0.973980000000     0.483750000000     0.025710000000     0.402802   
C103     C      0.891070000000     0.496610000000     0.966040000000     0.408044   
C104     C      0.872170000000     0.402570000000     0.065280000000     0.400885   
C105     C      0.239640000000     0.081910000000     0.592140000000     0.408443   
C106     C      0.304090000000     0.150890000000     0.714720000000     0.40128    
C107     C      0.225730000000     0.166480000000     0.643300000000     0.413083   
C108     C      0.196460000000     0.073830000000     0.740410000000     0.404507   
C109     C      0.481910000000     0.291040000000     0.897580000000     0.415024   
C110     C      0.426020000000     0.203520000000     0.801530000000     0.402096   
C111     C      0.520780000000     0.290800000000     0.743900000000     0.402067   
C112     C      0.522570000000     0.219720000000     0.856690000000     0.406183   
C113     C      0.195880000000     0.746420000000     0.730070000000     0.409445   
C114     C      0.207660000000     0.823030000000     0.842380000000     0.403592   
C115     C      0.220350000000     0.736380000000     0.887500000000     0.404347   
C116     C      0.297000000000     0.820910000000     0.787670000000     0.413497   
C117     C      0.144850000000     0.946400000000     0.041480000000     0.404785   
C118     C      0.138040000000     0.877880000000     0.920710000000     0.401146   
C119     C      0.049660000000     0.887890000000     0.960980000000     0.414217   
C120     C      0.141060000000     0.972580000000     0.879550000000     0.406873   
C121     C      0.562460000000     0.395420000000     0.435720000000     0.398828   
C122     C      0.549180000000     0.469520000000     0.547160000000     0.402806   
C123     C      0.560260000000     0.388110000000     0.598810000000     0.406722   
C124     C      0.641610000000     0.484100000000     0.498150000000     0.403317   
C125     C      0.498370000000     0.624780000000     0.697330000000     0.410408   
C126     C      0.483950000000     0.535410000000     0.605810000000     0.405862   
C127     C      0.397200000000     0.537480000000     0.652670000000     0.411881   
C128     C      0.469610000000     0.618410000000     0.541720000000     0.40565    
C129     C      0.892080000000     0.088910000000     0.089390000000     0.410791   
C130     C      0.878070000000     0.147730000000     0.206280000000     0.403157   
C131     C      0.897150000000     0.065200000000     0.249180000000     0.402367   
C132     C      0.980150000000     0.162950000000     0.178970000000     0.413436   
C133     C      0.813590000000     0.290330000000     0.362560000000     0.412283   
C134     C      0.826250000000     0.228040000000     0.251940000000     0.402301   
C135     C      0.722910000000     0.209040000000     0.279750000000     0.414388   
C136     C      0.799480000000     0.303550000000     0.200600000000     0.403483   
C137     C      0.836080000000     0.937070000000     0.542200000000     0.409612   
C138     C      0.768990000000     0.870100000000     0.421990000000     0.403846   
C139     C      0.866770000000     0.962260000000     0.383110000000     0.405389   
C140     C      0.865020000000     0.872340000000     0.457230000000     0.413808   
C141     C      0.553700000000     0.746980000000     0.255280000000     0.402652   
C142     C      0.635910000000     0.813130000000     0.373790000000     0.409982   
C143     C      0.545980000000     0.820220000000     0.350600000000     0.406223   
C144     C      0.538100000000     0.724650000000     0.416250000000     0.40169    
C145     C      0.695260000000     0.850800000000     0.347470000000    -0.0105494  
C146     C      0.680200000000     0.836390000000     0.440410000000    -0.0108758  
C147     C      0.725300000000     0.845370000000     0.354300000000    -0.0116758  
C148     C      0.709820000000     0.830340000000     0.446730000000    -0.0107762  
C149     C      0.887630000000     0.044500000000     0.338420000000    -0.0108112  
C150     C      0.872430000000     0.003530000000     0.264220000000    -0.0113757  
C151     C      0.900500000000     0.024350000000     0.367930000000    -0.0107586  
C152     C      0.885250000000     0.983640000000     0.294810000000    -0.0105139  
C153     C      0.855050000000     0.211430000000     0.188170000000    -0.0111219  
C154     C      0.859020000000     0.201910000000     0.282110000000    -0.0100083  
C155     C      0.846180000000     0.174910000000     0.177010000000    -0.0100151  
C156     C      0.850670000000     0.165470000000     0.270980000000    -0.0113607  
C157     C      0.523280000000     0.666650000000     0.442800000000    -0.0116378  
C158     C      0.505790000000     0.701560000000     0.496410000000    -0.0114478  
C159     C      0.488690000000     0.635240000000     0.452280000000    -0.0102719  
C160     C      0.471470000000     0.669510000000     0.505140000000    -0.0102398  
C161     C      0.517290000000     0.509360000000     0.633340000000    -0.0104728  
C162     C      0.481780000000     0.488840000000     0.554010000000    -0.0101478  
C163     C      0.547140000000     0.511790000000     0.603980000000    -0.0104481  
C164     C      0.511470000000     0.491300000000     0.524040000000    -0.0109178  
C165     C      0.204460000000     0.860610000000     0.907790000000    -0.0105721  
C166     C      0.171740000000     0.848020000000     0.825590000000    -0.0106987  
C167     C      0.172510000000     0.851370000000     0.938160000000    -0.0112657  
C168     C      0.139930000000     0.839120000000     0.856060000000    -0.0106474  
C169     C      0.570250000000     0.340460000000     0.704140000000    -0.0112632  
C170     C      0.518900000000     0.303120000000     0.652260000000    -0.0108938  
C171     C      0.569710000000     0.372130000000     0.685310000000    -0.0111158  
C172     C      0.516420000000     0.333870000000     0.635760000000    -0.0103377  
C173     C      0.173620000000     0.059020000000     0.828530000000    -0.0109903  
C174     C      0.147860000000     0.016500000000     0.758030000000    -0.0108814  
C175     C      0.177990000000     0.033590000000     0.861050000000    -0.0106218  
C176     C      0.151890000000     0.990350000000     0.789120000000    -0.0105312  
C177     C      0.386630000000     0.161790000000     0.738490000000    -0.00959423 
C178     C      0.364650000000     0.173930000000     0.818330000000    -0.0104117  
C179     C      0.364710000000     0.170810000000     0.705700000000    -0.0112913  
C180     C      0.342080000000     0.182710000000     0.786590000000    -0.0114759  
C181     C      0.806050000000     0.319270000000     0.109040000000    -0.0100637  
C182     C      0.815540000000     0.362450000000     0.175650000000    -0.0106963  
C183     C      0.841580000000     0.341830000000     0.088200000000    -0.0106399  
C184     C      0.850660000000     0.386860000000     0.153840000000    -0.01136    
C185     C      0.232280000000     0.710680000000     0.013910000000    -0.0103756  
C186     C      0.224470000000     0.666450000000     0.950150000000    -0.0113452  
C187     C      0.213190000000     0.722350000000     0.979580000000    -0.0108547  
C188     C      0.206390000000     0.678440000000     0.913670000000    -0.0108419  
C189     C      0.045010000000     0.545360000000     0.100500000000    -0.0107866  
C190     C      0.063490000000     0.541370000000     0.011290000000    -0.0104031  
C191     C      0.015490000000     0.508840000000     0.096090000000    -0.0110917  
C192     C      0.034060000000     0.504810000000     0.007090000000    -0.010868   
C193     C      0.551350000000     0.675900000000     0.722440000000    -0.0103799  
C194     C      0.498960000000     0.651750000000     0.779200000000    -0.00956686 
C195     C      0.572940000000     0.687880000000     0.770970000000    -0.00898974 
C196     C      0.522070000000     0.663910000000     0.825980000000    -0.00989047 
C197     C      0.845380000000     0.050610000000     0.032510000000    -0.00802432 
C198     C      0.904160000000     0.073760000000     0.004340000000    -0.00913199 
C199     C      0.839060000000     0.014350000000     0.034230000000    -0.00939862 
C200     C      0.900250000000     0.038360000000     0.003470000000    -0.00919684 
C201     C      0.699590000000     0.874250000000     0.900260000000    -0.0111831  
C202     C      0.691800000000     0.819550000000     0.936770000000    -0.0102086  
C203     C      0.732440000000     0.881210000000     0.875110000000    -0.0101836  
C204     C      0.725090000000     0.827020000000     0.912270000000    -0.0118406  
C205     C      0.594040000000     0.204940000000     0.867600000000    -0.0101295  
C206     C      0.540580000000     0.149630000000     0.865380000000    -0.0102135  
C207     C      0.575630000000     0.223520000000     0.884050000000    -0.0106676  
C208     C      0.520530000000     0.166520000000     0.881880000000    -0.0110463  
C209     C      0.497460000000     0.829420000000     0.350560000000    -0.00892796 
C210     C      0.554330000000     0.877180000000     0.332080000000    -0.00970472 
C211     C      0.485150000000     0.829910000000     0.296320000000    -0.010017   
C212     C      0.544950000000     0.880170000000     0.276930000000    -0.00922032 
C213     C      0.487970000000     0.787820000000     0.961670000000    -0.0101164  
C214     C      0.529610000000     0.792430000000     0.026640000000    -0.0092725  
C215     C      0.492170000000     0.821920000000     0.978890000000    -0.0112277  
C216     C      0.535540000000     0.827020000000     0.044160000000    -0.0112982  
C217     C      0.518110000000     0.985760000000     0.033600000000    -0.0113219  
C218     C      0.530220000000     0.004220000000     0.125820000000    -0.0109296  
C219     C      0.553470000000     0.014120000000     0.018800000000    -0.00996608 
C220     C      0.565670000000     0.032320000000     0.110850000000    -0.0106279  
C221     C      0.251850000000     0.525270000000     0.154550000000    -0.0103932  
C222     C      0.194210000000     0.480960000000     0.177820000000    -0.009115   
C223     C      0.241600000000     0.552310000000     0.149530000000    -0.00920981 
C224     C      0.181240000000     0.505880000000     0.174880000000    -0.00948136 
C225     C      0.235190000000     0.248120000000     0.595020000000    -0.00914092 
C226     C      0.179120000000     0.213410000000     0.634490000000    -0.0096411  
C227     C      0.240540000000     0.217580000000     0.592560000000    -0.0103643  
C228     C      0.181800000000     0.181350000000     0.632710000000    -0.0093143  
C229     C      0.193530000000     0.344720000000     0.355710000000    -0.011314   
C230     C      0.193040000000     0.362680000000     0.446780000000    -0.0101141  
C231     C      0.228390000000     0.376280000000     0.347970000000    -0.0107228  
C232     C      0.228020000000     0.393760000000     0.439080000000    -0.0109811  
C233     C      0.141840000000     0.704720000000     0.689860000000    -0.00918537 
C234     C      0.194970000000     0.727650000000     0.640970000000    -0.00961853 
C235     C      0.135440000000     0.668430000000     0.685880000000    -0.00997612 
C236     C      0.191020000000     0.692420000000     0.635840000000    -0.0096903  
C237     C      0.184490000000     0.567170000000     0.431880000000    -0.0102889  
C238     C      0.224960000000     0.575270000000     0.501550000000    -0.0100394  
C239     C      0.183940000000     0.534900000000     0.413920000000    -0.0111778  
C240     C      0.224990000000     0.543080000000     0.485050000000    -0.0105511  
C241     C      0.804680000000     0.308640000000     0.447510000000    -0.00970065 
C242     C      0.862310000000     0.331920000000     0.413370000000    -0.00842863 
C243     C      0.808390000000     0.344010000000     0.448320000000    -0.0102356  
C244     C      0.867790000000     0.367800000000     0.410620000000    -0.00960581 
C245     C      0.992600000000     0.542860000000     0.512490000000    -0.012093   
C246     C      0.976430000000     0.495020000000     0.575260000000    -0.0107632  
C247     C      0.022230000000     0.539210000000     0.494330000000    -0.00921839 
C248     C      0.005580000000     0.491000000000     0.555980000000    -0.00974612 
C249     C      0.575080000000     0.360950000000     0.377630000000    -0.0105087  
C250     C      0.518790000000     0.359750000000     0.373280000000    -0.0108013  
C251     C      0.571570000000     0.352830000000     0.320400000000    -0.0098731  
C252     C      0.516930000000     0.350930000000     0.316350000000    -0.0102851  
C253     C      0.524130000000     0.161190000000     0.117410000000    -0.0106591  
C254     C      0.579920000000     0.195870000000     0.162290000000    -0.0109771  
C255     C      0.518410000000     0.191390000000     0.120130000000    -0.0108687  
C256     C      0.573360000000     0.225640000000     0.166080000000    -0.0113154  
C257     C      0.140360000000     0.964300000000     0.129320000000    -0.010278   
C258     C      0.195930000000     0.979490000000     0.093750000000    -0.00887321 
C259     C      0.150430000000     0.001840000000     0.133890000000    -0.0102647  
C260     C      0.207680000000     0.017350000000     0.093940000000    -0.00942258 
C261     C      0.150520000000     0.138010000000     0.295920000000    -0.0107091  
C262     C      0.199540000000     0.148080000000     0.349540000000    -0.0108321  
C263     C      0.157230000000     0.173850000000     0.307800000000    -0.0105908  
C264     C      0.207270000000     0.184150000000     0.361950000000    -0.0109124  
C265     C      0.363520000000     0.173750000000     0.278440000000    -0.0107027  
C266     C      0.381220000000     0.213070000000     0.202550000000    -0.0101495  
C267     C      0.336120000000     0.145250000000     0.246130000000    -0.0102211  
C268     C      0.352730000000     0.184900000000     0.170740000000    -0.0114929  
C269     C      0.894110000000     0.535760000000     0.899050000000    -0.010378   
C270     C      0.848760000000     0.514220000000     0.969020000000    -0.0107295  
C271     C      0.890410000000     0.567150000000     0.893480000000    -0.0100556  
C272     C      0.847220000000     0.546740000000     0.961830000000    -0.00996177 
C273     C      0.815070000000     0.472120000000     0.652100000000    -0.0108983  
C274     C      0.835890000000     0.529140000000     0.608640000000    -0.0105629  
C275     C      0.784770000000     0.473910000000     0.672690000000    -0.0110953  
C276     C      0.804640000000     0.529200000000     0.627650000000    -0.00961805 
C277     C      0.864410000000     0.812920000000     0.534400000000    -0.0100649  
C278     C      0.922750000000     0.867480000000     0.531240000000    -0.0108017  
C279     C      0.861160000000     0.817470000000     0.477090000000    -0.00934298 
C280     C      0.916700000000     0.869980000000     0.474090000000    -0.00884044 
C281     C      0.885320000000     0.880500000000     0.775550000000    -0.0105189  
C282     C      0.920110000000     0.871420000000     0.843220000000    -0.0111934  
C283     C      0.897900000000     0.915950000000     0.797700000000    -0.0101251  
C284     C      0.930860000000     0.906790000000     0.864530000000    -0.00983497 
C285     C      0.802970000000     0.663420000000     0.741150000000    -0.00915112 
C286     C      0.833860000000     0.679200000000     0.824010000000    -0.010555   
C287     C      0.835530000000     0.685620000000     0.711580000000    -0.0114244  
C288     C      0.867090000000     0.702570000000     0.796410000000    -0.0113183  
C289     C      0.036670000000     0.221670000000     0.097920000000    -0.0104154  
C290     C      0.050690000000     0.175090000000     0.119590000000    -0.0106978  
C291     C      0.025810000000     0.220130000000     0.153720000000    -0.00939059 
C292     C      0.038890000000     0.175160000000     0.174380000000    -0.00903767 
C293     C      0.190640000000     0.178790000000     0.975120000000    -0.0102189  
C294     C      0.219360000000     0.230800000000     0.028410000000    -0.00835831 
C295     C      0.186950000000     0.156290000000     0.021150000000    -0.0100287  
C296     C      0.215870000000     0.210250000000     0.076500000000    -0.00969371 
C297     C      0.337600000000     0.522870000000     0.652830000000    -0.0102485  
C298     C      0.356490000000     0.492050000000     0.709860000000    -0.00893188 
C299     C      0.326090000000     0.535080000000     0.699050000000    -0.0102711  
C300     C      0.346000000000     0.503950000000     0.757450000000    -0.0104431  
C301     C      0.136660000000     0.530190000000     0.766320000000    -0.0101969  
C302     C      0.126560000000     0.482880000000     0.708420000000    -0.00942087 
C303     C      0.171660000000     0.536600000000     0.780390000000    -0.00995412 
C304     C      0.161340000000     0.487950000000     0.719670000000    -0.00953981 
C305     C      0.164300000000     0.356840000000     0.959930000000    -0.0113438  
C306     C      0.203070000000     0.346760000000     0.904700000000    -0.00953545 
C307     C      0.163380000000     0.380440000000     0.918930000000    -0.0105606  
C308     C      0.201650000000     0.369540000000     0.863100000000    -0.0111163  
C309     C      0.740160000000     0.224650000000     0.945250000000    -0.00985917 
C310     C      0.724020000000     0.164270000000     0.915770000000    -0.00881333 
C311     C      0.728010000000     0.210080000000     0.999110000000    -0.0115103  
C312     C      0.713740000000     0.152580000000     0.970950000000    -0.00987262 
C313     C      0.897940000000     0.355080000000     0.809570000000    -0.00943411 
C314     C      0.852150000000     0.366430000000     0.788780000000    -0.00961592 
C315     C      0.900460000000     0.367880000000     0.864420000000    -0.00950833 
C316     C      0.852500000000     0.379370000000     0.842920000000    -0.00949218 
C317     C      0.998030000000     0.136860000000     0.490150000000    -0.0106508  
C318     C      0.001450000000     0.191970000000     0.506400000000    -0.0080106  
C319     C      0.036030000000     0.152590000000     0.496510000000    -0.00866166 
C320     C      0.039750000000     0.210120000000     0.512470000000    -0.0106443  
C321     C      0.820130000000     0.970650000000     0.597510000000    -0.00840633 
C322     C      0.864060000000     0.958450000000     0.625960000000    -0.00973824 
C323     C      0.845190000000     0.008820000000     0.594580000000    -0.0100961  
C324     C      0.891080000000     0.996240000000     0.625240000000    -0.00995289 
C325     C      0.011170000000     0.129770000000     0.804370000000    -0.0103985  
C326     C      0.046200000000     0.181400000000     0.750810000000    -0.0108741  
C327     C      0.020940000000     0.151850000000     0.852740000000    -0.0110629  
C328     C      0.055600000000     0.204160000000     0.798130000000    -0.0106845  
C329     C      0.855660000000     0.160450000000     0.667370000000    -0.0100564  
C330     C      0.865920000000     0.151680000000     0.758980000000    -0.01129    
C331     C      0.859510000000     0.194810000000     0.681070000000    -0.0114164  
C332     C      0.868910000000     0.185730000000     0.773500000000    -0.0109699  
C333     C      0.389580000000     0.859040000000     0.794120000000    -0.00991088 
C334     C      0.375770000000     0.895540000000     0.741070000000    -0.00951736 
C335     C      0.353920000000     0.828660000000     0.787760000000    -0.0102298  
C336     C      0.339670000000     0.866370000000     0.733390000000    -0.00996926 
C337     C      0.583710000000     0.876740000000     0.742670000000    -0.0100557  
C338     C      0.555170000000     0.823630000000     0.691590000000    -0.0105152  
C339     C      0.552300000000     0.880010000000     0.742170000000    -0.00978453 
C340     C      0.522920000000     0.825480000000     0.688590000000    -0.010301   
C341     C      0.663630000000     0.194580000000     0.286330000000    -0.00879414 
C342     C      0.679070000000     0.151330000000     0.305910000000    -0.00927452 
C343     C      0.653840000000     0.195760000000     0.341960000000    -0.0102607  
C344     C      0.670210000000     0.150440000000     0.362560000000    -0.00987295 
C345     C      0.485250000000     0.145720000000     0.400250000000    -0.00775136 
C346     C      0.495380000000     0.195060000000     0.457910000000    -0.0113896  
C347     C      0.491250000000     0.132240000000     0.450500000000    -0.0115268  
C348     C      0.523810000000     0.192670000000     0.484670000000    -0.00887258 
C349     C      0.710190000000     0.233580000000     0.591560000000    -0.0108348  
C350     C      0.668330000000     0.213310000000     0.662530000000    -0.0110811  
C351     C      0.730860000000     0.220710000000     0.619400000000    -0.0105243  
C352     C      0.687790000000     0.199490000000     0.691500000000    -0.0104509  
C353     C      0.570820000000     0.027890000000     0.544430000000    -0.0113571  
C354     C      0.554490000000     0.046710000000     0.623970000000    -0.0110878  
C355     C      0.536190000000     0.995450000000     0.542770000000    -0.0108956  
C356     C      0.519500000000     0.014900000000     0.622550000000    -0.0106824  
C357     C      0.062470000000     0.870120000000     0.637410000000    -0.00907619 
C358     C      0.036070000000     0.813800000000     0.586460000000    -0.00921054 
C359     C      0.045620000000     0.849020000000     0.685200000000    -0.0093052  
C360     C      0.020040000000     0.795250000000     0.636550000000    -0.00937334 
C361     C      0.218070000000     0.058940000000     0.505700000000    -0.00971486 
C362     C      0.249390000000     0.037640000000     0.555350000000    -0.00871343 
C363     C      0.186310000000     0.023660000000     0.505120000000    -0.010081   
C364     C      0.218800000000     0.001740000000     0.557320000000    -0.00997952 
C365     C      0.348710000000     0.854210000000     0.214180000000    -0.00988223 
C366     C      0.339410000000     0.793660000000     0.205540000000    -0.0101606  
C367     C      0.360110000000     0.860200000000     0.158260000000    -0.00955909 
C368     C      0.350880000000     0.802110000000     0.149800000000    -0.00923672 
C369     C      0.208900000000     0.665410000000     0.334890000000    -0.00953988 
C370     C      0.171640000000     0.686420000000     0.305850000000    -0.00971625 
C371     C      0.213290000000     0.656180000000     0.280200000000    -0.0102999  
C372     C      0.174320000000     0.678050000000     0.249950000000    -0.00958052 
C373     C      0.413210000000     0.840910000000     0.473260000000    -0.0106651  
C374     C      0.374020000000     0.797990000000     0.535980000000    -0.0105699  
C375     C      0.385450000000     0.847040000000     0.453920000000    -0.0102921  
C376     C      0.344800000000     0.801930000000     0.516230000000    -0.0110359  
C377     C      0.181030000000     0.828520000000     0.462670000000    -0.0108288  
C378     C      0.189350000000     0.855790000000     0.375940000000    -0.0111758  
C379     C      0.218020000000     0.838010000000     0.463130000000    -0.0108225  
C380     C      0.226270000000     0.865110000000     0.376480000000    -0.0105152  
C381     C      0.736070000000     0.535410000000     0.483110000000    -0.0103674  
C382     C      0.711050000000     0.570440000000     0.461030000000    -0.00923331 
C383     C      0.701340000000     0.502840000000     0.484830000000    -0.0107966  
C384     C      0.675680000000     0.539600000000     0.457810000000    -0.00886975 
C385     C      0.806080000000     0.473500000000     0.340590000000    -0.00915243 
C386     C      0.863590000000     0.529920000000     0.339130000000    -0.0100429  
C387     C      0.801340000000     0.481030000000     0.285190000000    -0.00978525 
C388     C      0.855240000000     0.535060000000     0.284350000000    -0.00896758 
C389     C      0.989910000000     0.885940000000     0.038150000000    -0.0108448  
C390     C      0.991100000000     0.829830000000     0.038010000000    -0.00941656 
C391     C      0.997480000000     0.888700000000     0.980570000000    -0.00947055 
C392     C      0.997180000000     0.834440000000     0.980400000000    -0.0097731  
C393     C      0.827140000000     0.822030000000     0.151000000000    -0.00931102 
C394     C      0.861430000000     0.878930000000     0.188780000000    -0.00928836 
C395     C      0.833260000000     0.836160000000     0.096500000000    -0.00955206 
C396     C      0.868840000000     0.896220000000     0.136320000000    -0.0103153  
C397     C      0.047760000000     0.896320000000     0.277340000000    -0.0103042  
C398     C      0.008610000000     0.893840000000     0.345330000000    -0.00998508 
C399     C      0.063180000000     0.881690000000     0.313740000000    -0.0106418  
C400     C      0.023610000000     0.879690000000     0.383650000000    -0.0108547  
C401     C      0.846160000000     0.676870000000     0.211440000000    -0.00950423 
C402     C      0.845530000000     0.694120000000     0.303420000000    -0.0103961  
C403     C      0.884210000000     0.701270000000     0.209870000000    -0.0107874  
C404     C      0.883550000000     0.718910000000     0.300270000000    -0.0111361  
C405     C      0.667050000000     0.516020000000     0.845940000000    -0.0106795  
C406     C      0.677170000000     0.473000000000     0.888370000000    -0.0101512  
C407     C      0.659020000000     0.526200000000     0.897600000000    -0.0108408  
C408     C      0.670190000000     0.482950000000     0.940850000000    -0.0105434  
C409     C      0.468230000000     0.335700000000     0.917670000000    -0.00928233 
C410     C      0.487580000000     0.312340000000     0.986710000000    -0.0103258  
C411     C      0.497930000000     0.371510000000     0.925940000000    -0.00989183 
C412     C      0.516990000000     0.347920000000     0.999660000000    -0.0114867  
C413     C      0.680350000000     0.553150000000     0.173690000000    -0.0107178  
C414     C      0.660970000000     0.493540000000     0.206490000000    -0.0113943  
C415     C      0.643710000000     0.544560000000     0.173510000000    -0.00969608 
C416     C      0.624420000000     0.485690000000     0.203860000000    -0.0106535  
C417     C      0.377420000000     0.597110000000     0.329020000000    -0.00786186 
C418     C      0.384830000000     0.547560000000     0.335610000000    -0.00867176 
C419     C      0.386440000000     0.602160000000     0.272150000000    -0.00964148 
C420     C      0.395350000000     0.550130000000     0.279450000000    -0.00970455 
C421     C      0.552650000000     0.703430000000     0.199120000000    -0.00987202 
C422     C      0.516770000000     0.731150000000     0.180280000000    -0.0106359  
C423     C      0.549300000000     0.693730000000     0.142450000000    -0.00989619 
C424     C      0.515240000000     0.720340000000     0.124360000000    -0.00967434 
C425     C      0.324930000000     0.590920000000     0.953650000000    -0.0103099  
C426     C      0.289660000000     0.545410000000     0.015360000000    -0.00997037 
C427     C      0.356350000000     0.589540000000     0.968930000000    -0.0110082  
C428     C      0.319690000000     0.542220000000     0.032510000000    -0.0106876  
C429     C      0.451500000000     0.498390000000     0.069870000000    -0.0105147  
C430     C      0.482210000000     0.539390000000     0.999460000000    -0.0109256  
C431     C      0.483500000000     0.498710000000     0.086300000000    -0.00993926 
C432     C      0.514840000000     0.540080000000     0.013690000000    -0.0101436  
H1       H      0.688660000000     0.863010000000     0.452060000000     0.0418074  
H2       H      0.704420000000     0.878390000000     0.352120000000     0.0412209  
H3       H      0.745940000000     0.862840000000     0.328200000000     0.0480476  
H4       H      0.659610000000     0.819120000000     0.466750000000     0.0475631  
H5       H      0.719430000000     0.836790000000     0.486630000000     0.0491281  
H6       H      0.700400000000     0.802800000000     0.440690000000     0.0412253  
H7       H      0.685380000000     0.843470000000     0.307820000000     0.047998   
H8       H      0.717260000000     0.818840000000     0.342670000000     0.041021   
H9       H      0.844670000000     0.990780000000     0.269220000000     0.0417208  
H10      H      0.861340000000     0.035580000000     0.350800000000     0.0422459  
H11      H      0.897150000000     0.026470000000     0.409680000000     0.0482209  
H12      H      0.877540000000     0.002300000000     0.222880000000     0.048015   
H13      H      0.870590000000     0.956340000000     0.283790000000     0.0473547  
H14      H      0.912020000000     0.993460000000     0.284250000000     0.0407419  
H15      H      0.903200000000     0.071830000000     0.348900000000     0.0489586  
H16      H      0.927940000000     0.036130000000     0.360370000000     0.0400535  
H17      H      0.886890000000     0.218470000000     0.283210000000     0.0412084  
H18      H      0.882720000000     0.228280000000     0.183710000000     0.041735   
H19      H      0.855830000000     0.173890000000     0.138400000000     0.04955    
H20      H      0.849100000000     0.202790000000     0.320560000000     0.0494085  
H21      H      0.863810000000     0.158020000000     0.299320000000     0.0492698  
H22      H      0.823110000000     0.148280000000     0.276150000000     0.0420342  
H23      H      0.842480000000     0.219330000000     0.159470000000     0.0494468  
H24      H      0.818280000000     0.158600000000     0.176240000000     0.04162    
H25      H      0.522130000000     0.704930000000     0.529870000000     0.0424304  
H26      H      0.541300000000     0.666530000000     0.471060000000     0.042315   
H27      H      0.490890000000     0.612040000000     0.451520000000     0.0481664  
H28      H      0.502300000000     0.723990000000     0.494770000000     0.0493545  
H29      H      0.461240000000     0.671270000000     0.542860000000     0.0485831  
H30      H      0.453940000000     0.668410000000     0.474860000000     0.0400633  
H31      H      0.532070000000     0.664760000000     0.403930000000     0.0488536  
H32      H      0.471680000000     0.633250000000     0.420520000000     0.0382863  
H33      H      0.466360000000     0.462420000000     0.568730000000     0.040889   
H34      H      0.503620000000     0.484000000000     0.652120000000     0.0406703  
H35      H      0.562460000000     0.506030000000     0.630590000000     0.0485741  
H36      H      0.465780000000     0.493800000000     0.527630000000     0.0496342  
H37      H      0.501650000000     0.471070000000     0.494270000000     0.0507811  
H38      H      0.524580000000     0.516320000000     0.504210000000     0.043937   
H39      H      0.526800000000     0.529040000000     0.663920000000     0.0491509  
H40      H      0.563180000000     0.538450000000     0.590540000000     0.0427695  
H41      H      0.183960000000     0.875240000000     0.814220000000     0.0409577  
H42      H      0.218460000000     0.888580000000     0.901330000000     0.0407607  
H43      H      0.179520000000     0.866560000000     0.974060000000     0.0499066  
H44      H      0.164580000000     0.832510000000     0.790000000000     0.0492794  
H45      H      0.123650000000     0.845620000000     0.833010000000     0.0492996  
H46      H      0.125830000000     0.811180000000     0.862720000000     0.0416437  
H47      H      0.220730000000     0.854120000000     0.930890000000     0.0496479  
H48      H      0.160200000000     0.824030000000     0.948850000000     0.0417886  
H49      H      0.533930000000     0.298720000000     0.623130000000     0.040097   
H50      H      0.587040000000     0.336270000000     0.678330000000     0.0404642  
H51      H      0.596050000000     0.393370000000     0.680410000000     0.0480882  
H52      H      0.493260000000     0.280250000000     0.653200000000     0.0492151  
H53      H      0.504950000000     0.328910000000     0.596940000000     0.048255   
H54      H      0.499260000000     0.336750000000     0.662620000000     0.0419797  
H55      H      0.581150000000     0.345220000000     0.743330000000     0.0482096  
H56      H      0.557780000000     0.379760000000     0.715500000000     0.0413093  
H57      H      0.122440000000     0.012700000000     0.765970000000     0.0407933  
H58      H      0.149000000000     0.056590000000     0.838500000000     0.0405805  
H59      H      0.174300000000     0.037600000000     0.902010000000     0.0479837  
H60      H      0.149260000000     0.011940000000     0.716500000000     0.0486147  
H61      H      0.130280000000     0.964570000000     0.780590000000     0.0480618  
H62      H      0.175240000000     0.990980000000     0.776290000000     0.0411343  
H63      H      0.193790000000     0.085310000000     0.838200000000     0.049077   
H64      H      0.204310000000     0.039110000000     0.856560000000     0.0410717  
H65      H      0.349820000000     0.146490000000     0.828540000000     0.0405732  
H66      H      0.372290000000     0.133930000000     0.745900000000     0.0405588  
H67      H      0.357010000000     0.154870000000     0.670520000000     0.049539   
H68      H      0.371900000000     0.188870000000     0.854480000000     0.0486571  
H69      H      0.318470000000     0.174930000000     0.808230000000     0.0492644  
H70      H      0.355330000000     0.210800000000     0.781660000000     0.0419862  
H71      H      0.409790000000     0.167710000000     0.716910000000     0.0502174  
H72      H      0.380210000000     0.197860000000     0.693740000000     0.0435793  
H73      H      0.797370000000     0.368470000000     0.157290000000     0.0402142  
H74      H      0.788690000000     0.325140000000     0.087670000000     0.0403063  
H75      H      0.841280000000     0.337370000000     0.046260000000     0.0487712  
H76      H      0.815410000000     0.366840000000     0.217520000000     0.0474344  
H77      H      0.855680000000     0.413380000000     0.156900000000     0.0486184  
H78      H      0.869550000000     0.384990000000     0.177980000000     0.0417037  
H79      H      0.797990000000     0.292110000000     0.102140000000     0.0489402  
H80      H      0.858500000000     0.333990000000     0.106280000000     0.0431016  
H81      H      0.251680000000     0.680200000000     0.940030000000     0.0413029  
H82      H      0.259560000000     0.726290000000     0.004690000000     0.0402133  
H83      H      0.223690000000     0.750100000000     0.985290000000     0.0492941  
H84      H      0.214500000000     0.638790000000     0.944460000000     0.0494573  
H85      H      0.212860000000     0.675830000000     0.873540000000     0.0483059  
H86      H      0.178800000000     0.661290000000     0.918450000000     0.0412815  
H87      H      0.228890000000     0.715370000000     0.054670000000     0.0478802  
H88      H      0.186380000000     0.709060000000     0.991900000000     0.0412355  
H89      H      0.055580000000     0.558580000000     0.994110000000     0.0399004  
H90      H      0.035900000000     0.562950000000     0.089710000000     0.0403773  
H91      H      0.993950000000     0.506400000000     0.118850000000     0.0475272  
H92      H      0.085010000000     0.543820000000     0.988500000000     0.0478418  
H93      H      0.025750000000     0.499420000000     0.966470000000     0.0489776  
H94      H      0.043220000000     0.487330000000     0.018320000000     0.0415945  
H95      H      0.053410000000     0.550550000000     0.141090000000     0.0489355  
H96      H      0.023300000000     0.491540000000     0.113190000000     0.0411693  
H97      H      0.490900000000     0.670540000000     0.770940000000     0.0442823  
H98      H      0.550730000000     0.697960000000     0.705480000000     0.0444634  
H99      H      0.597530000000     0.711000000000     0.762340000000     0.0481277  
H100     H      0.476000000000     0.627160000000     0.788770000000     0.0481812  
H101     H      0.509530000000     0.669330000000     0.857990000000     0.0492849  
H102     H      0.526380000000     0.643030000000     0.838290000000     0.0404009  
H103     H      0.563670000000     0.667410000000     0.694170000000     0.0482279  
H104     H      0.577930000000     0.667460000000     0.783270000000     0.0400891  
H105     H      0.897390000000     0.078940000000     0.965840000000     0.0382852  
H106     H      0.838930000000     0.055400000000     0.993520000000     0.038375   
H107     H      0.813190000000     0.996750000000     0.019780000000     0.0477433  
H108     H      0.930860000000     0.093270000000     0.012080000000     0.0471195  
H109     H      0.913350000000     0.036320000000     0.969000000000     0.0470815  
H110     H      0.913270000000     0.035770000000     0.037570000000     0.0466188  
H111     H      0.828720000000     0.053410000000     0.060480000000     0.0484013  
H112     H      0.839940000000     0.007440000000     0.074840000000     0.0485626  
H113     H      0.696980000000     0.829050000000     0.976880000000     0.0413629  
H114     H      0.705730000000     0.887420000000     0.937960000000     0.0421286  
H115     H      0.749830000000     0.909150000000     0.872410000000     0.0493634  
H116     H      0.674370000000     0.791560000000     0.938000000000     0.0485778  
H117     H      0.737140000000     0.816170000000     0.936700000000     0.0497856  
H118     H      0.719380000000     0.813970000000     0.874510000000     0.0409758  
H119     H      0.687640000000     0.885330000000     0.876100000000     0.0500228  
H120     H      0.726680000000     0.870780000000     0.835520000000     0.040693   
H121     H      0.541450000000     0.149540000000     0.822800000000     0.0396539  
H122     H      0.595290000000     0.205230000000     0.825040000000     0.0387104  
H123     H      0.588160000000     0.249100000000     0.865870000000     0.0484927  
H124     H      0.527560000000     0.122780000000     0.878770000000     0.0494227  
H125     H      0.495690000000     0.153490000000     0.862220000000     0.048009   
H126     H      0.515770000000     0.162640000000     0.923770000000     0.0440927  
H127     H      0.620270000000     0.218630000000     0.882520000000     0.0473087  
H128     H      0.578270000000     0.227320000000     0.926240000000     0.0424966  
H129     H      0.549010000000     0.893840000000     0.356740000000     0.0384734  
H130     H      0.492770000000     0.846620000000     0.374980000000     0.0378383  
H131     H      0.459430000000     0.826380000000     0.298650000000     0.0453185  
H132     H      0.581730000000     0.886340000000     0.334570000000     0.0472322  
H133     H      0.556060000000     0.907590000000     0.267370000000     0.0475564  
H134     H      0.556770000000     0.869840000000     0.250890000000     0.0481694  
H135     H      0.482850000000     0.803300000000     0.366720000000     0.0483948  
H136     H      0.482900000000     0.807750000000     0.274880000000     0.0481222  
H137     H      0.509140000000     0.772440000000     0.050480000000     0.0377229  
H138     H      0.466830000000     0.767220000000     0.983780000000     0.0412564  
H139     H      0.467430000000     0.820590000000     0.976010000000     0.0488473  
H140     H      0.552790000000     0.791070000000     0.033000000000     0.0459629  
H141     H      0.540960000000     0.829660000000     0.085940000000     0.0478314  
H142     H      0.558210000000     0.847220000000     0.024200000000     0.0420367  
H143     H      0.481140000000     0.783710000000     0.920390000000     0.0481774  
H144     H      0.509770000000     0.841980000000     0.951990000000     0.0423774  
H145     H      0.513500000000     0.015260000000     0.126360000000     0.0420867  
H146     H      0.500430000000     0.995380000000     0.027970000000     0.0425364  
H147     H      0.552840000000     0.022990000000     0.979370000000     0.0502229  
H148     H      0.530930000000     0.995330000000     0.165210000000     0.0494063  
H149     H      0.573870000000     0.054230000000     0.137330000000     0.0477716  
H150     H      0.583110000000     0.022330000000     0.115760000000     0.0412475  
H151     H      0.510300000000     0.963780000000     0.007390000000     0.0490258  
H152     H      0.570370000000     0.003280000000     0.018430000000     0.0413474  
H153     H      0.191380000000     0.469270000000     0.139360000000     0.0386347  
H154     H      0.248610000000     0.512910000000     0.116580000000     0.0358991  
H155     H      0.253850000000     0.567950000000     0.114880000000     0.04474    
H156     H      0.178720000000     0.460270000000     0.205410000000     0.0485017  
H157     H      0.156060000000     0.492930000000     0.156190000000     0.045601   
H158     H      0.177620000000     0.512390000000     0.214540000000     0.048243   
H159     H      0.278900000000     0.537540000000     0.165230000000     0.0477815  
H160     H      0.251700000000     0.569660000000     0.183090000000     0.0469363  
H161     H      0.189570000000     0.226450000000     0.671670000000     0.0385042  
H162     H      0.245300000000     0.261370000000     0.632170000000     0.0382633  
H163     H      0.267230000000     0.226320000000     0.602290000000     0.0466263  
H164     H      0.152220000000     0.206380000000     0.632640000000     0.0470122  
H165     H      0.170290000000     0.166370000000     0.668160000000     0.0466603  
H166     H      0.166750000000     0.165500000000     0.599720000000     0.0451454  
H167     H      0.249490000000     0.266260000000     0.563670000000     0.0485323  
H168     H      0.236360000000     0.208080000000     0.552450000000     0.0468724  
H169     H      0.174030000000     0.370360000000     0.439180000000     0.0412116  
H170     H      0.174260000000     0.350810000000     0.342250000000     0.0411901  
H171     H      0.230960000000     0.384760000000     0.307450000000     0.0484978  
H172     H      0.190290000000     0.354340000000     0.487390000000     0.04905    
H173     H      0.230730000000     0.414820000000     0.463960000000     0.0490184  
H174     H      0.247010000000     0.387000000000     0.451550000000     0.0417855  
H175     H      0.191500000000     0.323630000000     0.331610000000     0.0476628  
H176     H      0.247700000000     0.368980000000     0.355350000000     0.0411911  
H177     H      0.182640000000     0.731900000000     0.607430000000     0.0394894  
H178     H      0.129630000000     0.709370000000     0.656540000000     0.038895   
H179     H      0.108080000000     0.650830000000     0.679300000000     0.0473715  
H180     H      0.222130000000     0.747410000000     0.640240000000     0.0488697  
H181     H      0.199740000000     0.690180000000     0.597050000000     0.0478136  
H182     H      0.207810000000     0.690180000000     0.664230000000     0.0456535  
H183     H      0.130030000000     0.707390000000     0.725360000000     0.0483119  
H184     H      0.141860000000     0.661420000000     0.723240000000     0.0464277  
H185     H      0.245890000000     0.597320000000     0.481350000000     0.041317   
H186     H      0.204300000000     0.589090000000     0.409900000000     0.0386357  
H187     H      0.181020000000     0.533000000000     0.371560000000     0.048124   
H188     H      0.229820000000     0.579190000000     0.543400000000     0.0490698  
H189     H      0.250440000000     0.546730000000     0.492060000000     0.0495542  
H190     H      0.206820000000     0.521650000000     0.509560000000     0.0430286  
H191     H      0.159880000000     0.565090000000     0.423140000000     0.0475677  
H192     H      0.161500000000     0.512540000000     0.430860000000     0.041781   
H193     H      0.870740000000     0.328430000000     0.451660000000     0.0391164  
H194     H      0.812970000000     0.304200000000     0.485290000000     0.0389903  
H195     H      0.796620000000     0.346580000000     0.483990000000     0.048761   
H196     H      0.877920000000     0.328750000000     0.383830000000     0.048054   
H197     H      0.894380000000     0.386160000000     0.421160000000     0.0470378  
H198     H      0.864120000000     0.373200000000     0.370340000000     0.0462813  
H199     H      0.777760000000     0.288920000000     0.442150000000     0.0475467  
H200     H      0.793980000000     0.345880000000     0.415540000000     0.0457508  
H201     H      0.985220000000     0.512120000000     0.609200000000     0.0406863  
H202     H      0.001960000000     0.562910000000     0.542520000000     0.0416672  
H203     H      0.043230000000     0.564490000000     0.482200000000     0.0487993  
H204     H      0.955500000000     0.469790000000     0.587720000000     0.0482791  
H205     H      0.014660000000     0.481410000000     0.587680000000     0.048883   
H206     H      0.995970000000     0.471630000000     0.524920000000     0.0415407  
H207     H      0.983240000000     0.551530000000     0.479960000000     0.0509347  
H208     H      0.013910000000     0.522180000000     0.460310000000     0.0424424  
H209     H      0.501970000000     0.336040000000     0.394800000000     0.0450703  
H210     H      0.567630000000     0.337160000000     0.399300000000     0.0453471  
H211     H      0.585050000000     0.339040000000     0.310760000000     0.0497355  
H212     H      0.508820000000     0.377290000000     0.378530000000     0.0501577  
H213     H      0.490150000000     0.335520000000     0.304310000000     0.048634   
H214     H      0.528770000000     0.375070000000     0.294120000000     0.0400996  
H215     H      0.602050000000     0.379110000000     0.386210000000     0.0479914  
H216     H      0.583690000000     0.377250000000     0.298860000000     0.039122   
H217     H      0.571600000000     0.181240000000     0.198690000000     0.0412922  
H218     H      0.511540000000     0.144460000000     0.150950000000     0.0419593  
H219     H      0.490930000000     0.181880000000     0.122020000000     0.0484822  
H220     H      0.607440000000     0.206080000000     0.158200000000     0.0479691  
H221     H      0.585340000000     0.240420000000     0.201470000000     0.0495831  
H222     H      0.585610000000     0.242690000000     0.132740000000     0.0407664  
H223     H      0.511920000000     0.146290000000     0.082210000000     0.0486197  
H224     H      0.528340000000     0.206480000000     0.084340000000     0.040678   
H225     H      0.202700000000     0.972880000000     0.131180000000     0.0389728  
H226     H      0.146860000000     0.956460000000     0.165900000000     0.0383238  
H227     H      0.141040000000     0.005700000000     0.171100000000     0.0466347  
H228     H      0.209200000000     0.973900000000     0.063060000000     0.0495572  
H229     H      0.234760000000     0.031750000000     0.104830000000     0.0464586  
H230     H      0.205650000000     0.025190000000     0.054370000000     0.0486011  
H231     H      0.112670000000     0.948380000000     0.123770000000     0.0475093  
H232     H      0.137400000000     0.007690000000     0.103150000000     0.0450458  
H233     H      0.182680000000     0.130730000000     0.379950000000     0.0401776  
H234     H      0.132350000000     0.120230000000     0.324750000000     0.0408761  
H235     H      0.132770000000     0.173180000000     0.309680000000     0.0484376  
H236     H      0.223260000000     0.147230000000     0.350210000000     0.0484582  
H237     H      0.217760000000     0.190800000000     0.401370000000     0.0489618  
H238     H      0.227020000000     0.202060000000     0.335020000000     0.0418554  
H239     H      0.138690000000     0.130000000000     0.257490000000     0.0483912  
H240     H      0.171970000000     0.190890000000     0.275610000000     0.0423901  
H241     H      0.371960000000     0.229450000000     0.218690000000     0.0419905  
H242     H      0.352180000000     0.186900000000     0.299070000000     0.0425242  
H243     H      0.314750000000     0.128210000000     0.271480000000     0.0497807  
H244     H      0.402820000000     0.229140000000     0.176930000000     0.0494921  
H245     H      0.343190000000     0.196650000000     0.143140000000     0.0487453  
H246     H      0.363420000000     0.171840000000     0.148250000000     0.0423372  
H247     H      0.372540000000     0.162380000000     0.307560000000     0.0487669  
H248     H      0.346570000000     0.130050000000     0.229440000000     0.0418373  
H249     H      0.826880000000     0.493020000000     0.949000000000     0.0451848  
H250     H      0.880490000000     0.518090000000     0.866850000000     0.043762   
H251     H      0.896430000000     0.576820000000     0.853520000000     0.0466652  
H252     H      0.846120000000     0.507830000000     0.010520000000     0.0468499  
H253     H      0.821720000000     0.541800000000     0.972290000000     0.048803   
H254     H      0.865710000000     0.566430000000     0.988390000000     0.0392269  
H255     H      0.921200000000     0.543820000000     0.895060000000     0.0465508  
H256     H      0.909030000000     0.587330000000     0.919290000000     0.0385592  
H257     H      0.856880000000     0.544260000000     0.635760000000     0.0424995  
H258     H      0.834540000000     0.481110000000     0.682650000000     0.0411352  
H259     H      0.777200000000     0.460930000000     0.710470000000     0.0476137  
H260     H      0.843100000000     0.542060000000     0.570770000000     0.0487078  
H261     H      0.810400000000     0.555890000000     0.632150000000     0.0488225  
H262     H      0.784620000000     0.516800000000     0.598100000000     0.038493   
H263     H      0.807030000000     0.445120000000     0.643750000000     0.0481304  
H264     H      0.763410000000     0.459950000000     0.645670000000     0.0405242  
H265     H      0.919000000000     0.886540000000     0.552290000000     0.0476305  
H266     H      0.848630000000     0.820950000000     0.555650000000     0.0473153  
H267     H      0.834130000000     0.805740000000     0.466580000000     0.0470857  
H268     H      0.949490000000     0.874560000000     0.536790000000     0.0465753  
H269     H      0.930560000000     0.897080000000     0.461880000000     0.0473886  
H270     H      0.926950000000     0.856260000000     0.452190000000     0.0386016  
H271     H      0.853950000000     0.785380000000     0.542290000000     0.0493404  
H272     H      0.871810000000     0.803920000000     0.455720000000     0.0391642  
H273     H      0.899300000000     0.852170000000     0.867420000000     0.0411505  
H274     H      0.859800000000     0.862970000000     0.791200000000     0.0409663  
H275     H      0.879010000000     0.923840000000     0.790490000000     0.0468802  
H276     H      0.941620000000     0.866890000000     0.846690000000     0.0487217  
H277     H      0.935610000000     0.907370000000     0.906380000000     0.0452681  
H278     H      0.954880000000     0.925470000000     0.845690000000     0.0398246  
H279     H      0.882920000000     0.881670000000     0.733310000000     0.0471645  
H280     H      0.921580000000     0.934160000000     0.777570000000     0.0396947  
H281     H      0.822300000000     0.694610000000     0.835130000000     0.0397364  
H282     H      0.791390000000     0.679100000000     0.750460000000     0.0399831  
H283     H      0.829700000000     0.696430000000     0.677580000000     0.0506711  
H284     H      0.838920000000     0.669110000000     0.859570000000     0.0479143  
H285     H      0.882700000000     0.725100000000     0.821010000000     0.0483546  
H286     H      0.880940000000     0.688590000000     0.791710000000     0.0421946  
H287     H      0.785010000000     0.641880000000     0.716620000000     0.0508149  
H288     H      0.845340000000     0.669210000000     0.697550000000     0.0452331  
H289     H      0.030550000000     0.152470000000     0.099270000000     0.046631   
H290     H      0.013720000000     0.207770000000     0.073810000000     0.0450101  
H291     H      0.006430000000     0.227790000000     0.156300000000     0.0469698  
H292     H      0.073210000000     0.172110000000     0.121180000000     0.0478602  
H293     H      0.029040000000     0.149590000000     0.191840000000     0.0468671  
H294     H      0.061000000000     0.193750000000     0.197230000000     0.0386441  
H295     H      0.050090000000     0.248700000000     0.085240000000     0.0486224  
H296     H      0.048120000000     0.238650000000     0.176280000000     0.0386629  
H297     H      0.243760000000     0.237750000000     0.009780000000     0.0392279  
H298     H      0.214710000000     0.185800000000     0.955380000000     0.0396511  
H299     H      0.191600000000     0.135760000000     0.008140000000     0.0472442  
H300     H      0.220060000000     0.254770000000     0.039160000000     0.047639   
H301     H      0.239060000000     0.224690000000     0.099990000000     0.0475823  
H302     H      0.194410000000     0.207790000000     0.099520000000     0.0453893  
H303     H      0.169680000000     0.164170000000     0.947710000000     0.0473037  
H304     H      0.160460000000     0.143820000000     0.034850000000     0.0444078  
H305     H      0.334810000000     0.467190000000     0.697630000000     0.039991   
H306     H      0.315890000000     0.498460000000     0.639260000000     0.0407162  
H307     H      0.303080000000     0.535790000000     0.688250000000     0.0496193  
H308     H      0.377750000000     0.488030000000     0.719490000000     0.047918   
H309     H      0.336710000000     0.483500000000     0.786850000000     0.0493831  
H310     H      0.368620000000     0.526650000000     0.773310000000     0.0446876  
H311     H      0.345260000000     0.541740000000     0.621270000000     0.0486889  
H312     H      0.346090000000     0.561550000000     0.708230000000     0.0439223  
H313     H      0.108410000000     0.464260000000     0.736480000000     0.0393455  
H314     H      0.118240000000     0.511710000000     0.794240000000     0.0394555  
H315     H      0.176170000000     0.543140000000     0.821790000000     0.0474761  
H316     H      0.118380000000     0.472070000000     0.669370000000     0.0487114  
H317     H      0.159280000000     0.462550000000     0.720800000000     0.0478013  
H318     H      0.178470000000     0.502460000000     0.687510000000     0.0459812  
H319     H      0.136190000000     0.554290000000     0.769580000000     0.0483874  
H320     H      0.190730000000     0.559070000000     0.758500000000     0.0441482  
H321     H      0.225350000000     0.362590000000     0.929310000000     0.0412322  
H322     H      0.184280000000     0.372710000000     0.988080000000     0.0416351  
H323     H      0.160960000000     0.400910000000     0.938050000000     0.0486399  
H324     H      0.206750000000     0.326820000000     0.886450000000     0.0493142  
H325     H      0.226000000000     0.382170000000     0.842100000000     0.0497898  
H326     H      0.181550000000     0.353180000000     0.835410000000     0.0427375  
H327     H      0.139800000000     0.343970000000     0.980540000000     0.0495638  
H328     H      0.140560000000     0.365390000000     0.894970000000     0.0413973  
H329     H      0.700860000000     0.156050000000     0.892660000000     0.0467846  
H330     H      0.720820000000     0.229110000000     0.927270000000     0.0457072  
H331     H      0.718560000000     0.225130000000     0.019230000000     0.0494753  
H332     H      0.736880000000     0.151120000000     0.899910000000     0.0473951  
H333     H      0.694120000000     0.125140000000     0.971600000000     0.0473184  
H334     H      0.736190000000     0.155610000000     0.991790000000     0.0386219  
H335     H      0.763560000000     0.249870000000     0.948800000000     0.0458884  
H336     H      0.749900000000     0.212600000000     0.020990000000     0.040212   
H337     H      0.869920000000     0.388410000000     0.764740000000     0.0390716  
H338     H      0.915520000000     0.376970000000     0.785210000000     0.0383909  
H339     H      0.927500000000     0.382650000000     0.875450000000     0.0488425  
H340     H      0.826540000000     0.355540000000     0.772030000000     0.0477402  
H341     H      0.848560000000     0.401500000000     0.840350000000     0.046933   
H342     H      0.830860000000     0.359040000000     0.864590000000     0.0467943  
H343     H      0.905960000000     0.335800000000     0.808250000000     0.0467192  
H344     H      0.888020000000     0.345520000000     0.890420000000     0.0470988  
H345     H      0.995640000000     0.193440000000     0.465440000000     0.0382827  
H346     H      0.992670000000     0.138590000000     0.449060000000     0.0386657  
H347     H      0.045060000000     0.140850000000     0.467950000000     0.0472842  
H348     H      0.991250000000     0.205240000000     0.529540000000     0.0483772  
H349     H      0.050990000000     0.235540000000     0.493920000000     0.0472321  
H350     H      0.045890000000     0.214470000000     0.553980000000     0.0467416  
H351     H      0.985030000000     0.109490000000     0.500840000000     0.047375   
H352     H      0.041100000000     0.145980000000     0.535210000000     0.0458681  
H353     H      0.852540000000     0.952070000000     0.664800000000     0.0381574  
H354     H      0.809120000000     0.964630000000     0.636700000000     0.0381486  
H355     H      0.832660000000     0.022650000000     0.608990000000     0.0467119  
H356     H      0.875880000000     0.942740000000     0.618790000000     0.0472591  
H357     H      0.907490000000     0.001930000000     0.659450000000     0.047089   
H358     H      0.907220000000     0.001180000000     0.590910000000     0.0468398  
H359     H      0.799300000000     0.963660000000     0.569770000000     0.0477086  
H360     H      0.851640000000     0.016000000000     0.553670000000     0.0478963  
H361     H      0.065990000000     0.174560000000     0.744820000000     0.0400517  
H362     H      0.029040000000     0.120270000000     0.799930000000     0.040933   
H363     H      0.023020000000     0.137260000000     0.885270000000     0.047446   
H364     H      0.046080000000     0.195950000000     0.716720000000     0.0483391  
H365     H      0.081550000000     0.226100000000     0.793020000000     0.047531   
H366     H      0.038210000000     0.214350000000     0.800750000000     0.0410099  
H367     H      0.985490000000     0.107370000000     0.809360000000     0.0484694  
H368     H      0.000260000000     0.156910000000     0.861840000000     0.040738   
H369     H      0.839470000000     0.131150000000     0.765690000000     0.0408164  
H370     H      0.828460000000     0.140860000000     0.669130000000     0.0411912  
H371     H      0.843200000000     0.199680000000     0.655230000000     0.0498644  
H372     H      0.882430000000     0.146950000000     0.784560000000     0.0469368  
H373     H      0.858760000000     0.183690000000     0.812820000000     0.048418   
H374     H      0.896070000000     0.205510000000     0.774210000000     0.0411901  
H375     H      0.864310000000     0.161410000000     0.627310000000     0.0501468  
H376     H      0.886070000000     0.214920000000     0.673880000000     0.0422005  
H377     H      0.376330000000     0.910130000000     0.775590000000     0.0395205  
H378     H      0.390140000000     0.873180000000     0.829200000000     0.0397625  
H379     H      0.346320000000     0.813890000000     0.824100000000     0.0468264  
H380     H      0.383650000000     0.913000000000     0.707600000000     0.0483562  
H381     H      0.322600000000     0.877010000000     0.733240000000     0.0477219  
H382     H      0.337870000000     0.854890000000     0.695080000000     0.0444551  
H383     H      0.407580000000     0.849800000000     0.799550000000     0.0484097  
H384     H      0.354310000000     0.811810000000     0.757280000000     0.0449735  
H385     H      0.571050000000     0.837120000000     0.657770000000     0.0392896  
H386     H      0.599490000000     0.890720000000     0.709020000000     0.0389059  
H387     H      0.560290000000     0.907450000000     0.739440000000     0.0469445  
H388     H      0.548750000000     0.796610000000     0.689740000000     0.0477316  
H389     H      0.511580000000     0.816740000000     0.649970000000     0.0474039  
H390     H      0.504660000000     0.807450000000     0.717090000000     0.0439823  
H391     H      0.598620000000     0.888810000000     0.777870000000     0.0494693  
H392     H      0.538870000000     0.870380000000     0.779230000000     0.0449358  
H393     H      0.656160000000     0.132110000000     0.285190000000     0.038613   
H394     H      0.640950000000     0.174900000000     0.265680000000     0.0388544  
H395     H      0.630370000000     0.197120000000     0.342250000000     0.0474071  
H396     H      0.698820000000     0.144290000000     0.301440000000     0.0469057  
H397     H      0.657000000000     0.123540000000     0.375840000000     0.0485702  
H398     H      0.694000000000     0.164270000000     0.384860000000     0.0473886  
H399     H      0.672010000000     0.219510000000     0.267530000000     0.0474579  
H400     H      0.673930000000     0.219610000000     0.359810000000     0.0485208  
H401     H      0.501780000000     0.222090000000     0.457110000000     0.047636   
H402     H      0.503220000000     0.146630000000     0.370870000000     0.0485222  
H403     H      0.493180000000     0.109320000000     0.442450000000     0.047508   
H404     H      0.471950000000     0.180610000000     0.480830000000     0.038889   
H405     H      0.548410000000     0.213440000000     0.470120000000     0.0498182  
H406     H      0.523210000000     0.196920000000     0.526500000000     0.0394246  
H407     H      0.459470000000     0.127810000000     0.385860000000     0.0405865  
H408     H      0.469090000000     0.124280000000     0.475870000000     0.0380255  
H409     H      0.677640000000     0.239870000000     0.675450000000     0.040397   
H410     H      0.720140000000     0.260580000000     0.602680000000     0.040346   
H411     H      0.758020000000     0.238420000000     0.611500000000     0.0491872  
H412     H      0.641120000000     0.197870000000     0.672170000000     0.0487     
H413     H      0.685310000000     0.202380000000     0.733310000000     0.0477655  
H414     H      0.675970000000     0.171840000000     0.683190000000     0.0414735  
H415     H      0.713460000000     0.232770000000     0.549480000000     0.0475547  
H416     H      0.724150000000     0.195470000000     0.603240000000     0.0418877  
H417     H      0.570960000000     0.041270000000     0.648520000000     0.0404969  
H418     H      0.588360000000     0.022090000000     0.565390000000     0.0399995  
H419     H      0.539090000000     0.974370000000     0.527120000000     0.0492056  
H420     H      0.552710000000     0.067890000000     0.641900000000     0.0489373  
H421     H      0.510430000000     0.007340000000     0.662520000000     0.0493378  
H422     H      0.502040000000     0.021400000000     0.602950000000     0.0425302  
H423     H      0.580480000000     0.035400000000     0.504710000000     0.0495935  
H424     H      0.519940000000     0.999700000000     0.515880000000     0.0426297  
H425     H      0.016260000000     0.814200000000     0.562590000000     0.0452655  
H426     H      0.048100000000     0.882430000000     0.624710000000     0.0472521  
H427     H      0.040710000000     0.864440000000     0.713150000000     0.0494024  
H428     H      0.045270000000     0.798980000000     0.564980000000     0.0474333  
H429     H      0.996210000000     0.771170000000     0.628260000000     0.0462741  
H430     H      0.037660000000     0.788640000000     0.655430000000     0.0385612  
H431     H      0.088230000000     0.890840000000     0.647790000000     0.0472222  
H432     H      0.063240000000     0.842120000000     0.703320000000     0.0396196  
H433     H      0.264340000000     0.039680000000     0.520640000000     0.0382426  
H434     H      0.233210000000     0.061320000000     0.471080000000     0.0387853  
H435     H      0.174100000000     0.019460000000     0.466930000000     0.0461861  
H436     H      0.265560000000     0.042090000000     0.589470000000     0.0482636  
H437     H      0.227620000000     0.983170000000     0.553390000000     0.0465372  
H438     H      0.206820000000     0.997720000000     0.595650000000     0.0470295  
H439     H      0.210930000000     0.078860000000     0.503610000000     0.0474545  
H440     H      0.168350000000     0.023290000000     0.533980000000     0.0455029  
H441     H      0.360320000000     0.794710000000     0.228370000000     0.0470081  
H442     H      0.371370000000     0.867550000000     0.239030000000     0.0465828  
H443     H      0.378290000000     0.887690000000     0.151900000000     0.0470815  
H444     H      0.317930000000     0.767040000000     0.207450000000     0.04652    
H445     H      0.362220000000     0.786800000000     0.137100000000     0.0484769  
H446     H      0.328360000000     0.794960000000     0.125620000000     0.0380966  
H447     H      0.333100000000     0.866120000000     0.221260000000     0.0490602  
H448     H      0.337680000000     0.852880000000     0.133770000000     0.0383799  
H449     H      0.149790000000     0.663810000000     0.323510000000     0.0392014  
H450     H      0.186850000000     0.642890000000     0.352380000000     0.0385745  
H451     H      0.213170000000     0.631700000000     0.281200000000     0.0464186  
H452     H      0.166810000000     0.707970000000     0.307730000000     0.046937   
H453     H      0.149180000000     0.667610000000     0.231620000000     0.0487184  
H454     H      0.191850000000     0.702090000000     0.229690000000     0.0460421  
H455     H      0.231540000000     0.671500000000     0.358040000000     0.0482827  
H456     H      0.238440000000     0.675980000000     0.265900000000     0.0469623  
H457     H      0.373950000000     0.776900000000     0.514390000000     0.0404888  
H458     H      0.413040000000     0.820540000000     0.449510000000     0.0390633  
H459     H      0.389550000000     0.853150000000     0.412370000000     0.0479067  
H460     H      0.370000000000     0.790800000000     0.577160000000     0.0484779  
H461     H      0.321310000000     0.776650000000     0.517010000000     0.0489503  
H462     H      0.341290000000     0.818880000000     0.542990000000     0.0421563  
H463     H      0.438090000000     0.864440000000     0.468350000000     0.0487611  
H464     H      0.387670000000     0.869610000000     0.474060000000     0.0419548  
H465     H      0.174560000000     0.831170000000     0.355410000000     0.0426304  
H466     H      0.165750000000     0.802130000000     0.447740000000     0.0417938  
H467     H      0.220520000000     0.818540000000     0.485230000000     0.0480745  
H468     H      0.187020000000     0.875440000000     0.354090000000     0.0499303  
H469     H      0.234640000000     0.865040000000     0.336570000000     0.0500628  
H470     H      0.241560000000     0.891410000000     0.391720000000     0.0405934  
H471     H      0.172790000000     0.828800000000     0.502610000000     0.0488963  
H472     H      0.232810000000     0.862790000000     0.483250000000     0.0408513  
H473     H      0.715680000000     0.580070000000     0.501120000000     0.0390769  
H474     H      0.742030000000     0.546760000000     0.522150000000     0.0382082  
H475     H      0.700030000000     0.487840000000     0.519270000000     0.0471883  
H476     H      0.713150000000     0.591020000000     0.435630000000     0.0476463  
H477     H      0.657700000000     0.546640000000     0.474180000000     0.0465456  
H478     H      0.668940000000     0.533150000000     0.416790000000     0.0449797  
H479     H      0.755620000000     0.529000000000     0.472500000000     0.0465342  
H480     H      0.698980000000     0.487040000000     0.450860000000     0.043898   
H481     H      0.861060000000     0.548070000000     0.364640000000     0.0475341  
H482     H      0.789290000000     0.478210000000     0.365620000000     0.0479375  
H483     H      0.774030000000     0.468620000000     0.276110000000     0.0489343  
H484     H      0.890450000000     0.536720000000     0.340670000000     0.0488815  
H485     H      0.867640000000     0.562700000000     0.275550000000     0.0468839  
H486     H      0.865460000000     0.523480000000     0.257570000000     0.038028   
H487     H      0.797780000000     0.446000000000     0.343990000000     0.045864   
H488     H      0.812760000000     0.470130000000     0.259430000000     0.0380528  
H489     H      0.015240000000     0.836590000000     0.057300000000     0.0491138  
H490     H      0.013260000000     0.904510000000     0.058610000000     0.0478452  
H491     H      0.011820000000     0.915920000000     0.969060000000     0.0470601  
H492     H      0.973190000000     0.802450000000     0.045930000000     0.0489252  
H493     H      0.010810000000     0.821410000000     0.967420000000     0.0481581  
H494     H      0.972340000000     0.822310000000     0.960730000000     0.0394138  
H495     H      0.970850000000     0.893630000000     0.045310000000     0.0473697  
H496     H      0.973140000000     0.876320000000     0.959470000000     0.0368611  
H497     H      0.838040000000     0.877130000000     0.204180000000     0.0391287  
H498     H      0.804260000000     0.821350000000     0.166360000000     0.0379643  
H499     H      0.809290000000     0.822310000000     0.074610000000     0.0479203  
H500     H      0.882330000000     0.894610000000     0.215760000000     0.0484882  
H501     H      0.866620000000     0.919370000000     0.139410000000     0.0465468  
H502     H      0.895430000000     0.904900000000     0.126030000000     0.047632   
H503     H      0.822430000000     0.795550000000     0.150560000000     0.0466378  
H504     H      0.851690000000     0.830740000000     0.077510000000     0.0458787  
H505     H      0.022450000000     0.922030000000     0.349030000000     0.0404598  
H506     H      0.062800000000     0.924550000000     0.279920000000     0.039595   
H507     H      0.090420000000     0.893350000000     0.304680000000     0.0490034  
H508     H      0.981760000000     0.884200000000     0.355050000000     0.0475119  
H509     H      0.023930000000     0.890250000000     0.422210000000     0.0476376  
H510     H      0.006760000000     0.851630000000     0.385760000000     0.0421506  
H511     H      0.049510000000     0.888990000000     0.237330000000     0.0477421  
H512     H      0.051060000000     0.853870000000     0.306610000000     0.042339   
H513     H      0.832440000000     0.708560000000     0.295710000000     0.0419687  
H514     H      0.833540000000     0.690150000000     0.195290000000     0.0440806  
H515     H      0.892000000000     0.710560000000     0.170040000000     0.050636   
H516     H      0.839020000000     0.683930000000     0.343070000000     0.0488851  
H517     H      0.890460000000     0.741020000000     0.325790000000     0.0473064  
H518     H      0.896620000000     0.705590000000     0.314450000000     0.0408029  
H519     H      0.839850000000     0.654620000000     0.186540000000     0.0499295  
H520     H      0.896840000000     0.686910000000     0.221150000000     0.0415522  
H521     H      0.653110000000     0.451850000000     0.872970000000     0.0401513  
H522     H      0.643050000000     0.495770000000     0.828980000000     0.0403663  
H523     H      0.639240000000     0.533050000000     0.891940000000     0.0501285  
H524     H      0.695150000000     0.463620000000     0.892500000000     0.0495417  
H525     H      0.658450000000     0.460010000000     0.965750000000     0.0487527  
H526     H      0.694640000000     0.501780000000     0.958420000000     0.0429295  
H527     H      0.677880000000     0.538220000000     0.819560000000     0.0488311  
H528     H      0.682090000000     0.549260000000     0.911580000000     0.0425049  
H529     H      0.465770000000     0.307420000000     0.011140000000     0.0401735  
H530     H      0.447070000000     0.332370000000     0.942390000000     0.0392818  
H531     H      0.489190000000     0.389980000000     0.919660000000     0.0467349  
H532     H      0.494610000000     0.292930000000     0.996180000000     0.0472867  
H533     H      0.519760000000     0.350430000000     0.042020000000     0.0489011  
H534     H      0.540550000000     0.350120000000     0.984270000000     0.0427499  
H535     H      0.459790000000     0.332680000000     0.877120000000     0.0472007  
H536     H      0.517460000000     0.376670000000     0.896570000000     0.0434411  
H537     H      0.666360000000     0.483510000000     0.171140000000     0.0430957  
H538     H      0.687090000000     0.549270000000     0.134360000000     0.0435502  
H539     H      0.640190000000     0.560040000000     0.143920000000     0.048421   
H540     H      0.663570000000     0.479700000000     0.239610000000     0.0486805  
H541     H      0.607460000000     0.458210000000     0.195410000000     0.0484648  
H542     H      0.617470000000     0.491110000000     0.242050000000     0.0399722  
H543     H      0.696690000000     0.580500000000     0.183510000000     0.0488564  
H544     H      0.638040000000     0.551570000000     0.211490000000     0.0399759  
H545     H      0.407810000000     0.563190000000     0.359040000000     0.0368818  
H546     H      0.400960000000     0.611830000000     0.351660000000     0.0361201  
H547     H      0.404090000000     0.629680000000     0.264780000000     0.0440739  
H548     H      0.373110000000     0.520750000000     0.348870000000     0.0474056  
H549     H      0.418350000000     0.547980000000     0.277070000000     0.0468213  
H550     H      0.375180000000     0.527870000000     0.258500000000     0.0496449  
H551     H      0.360470000000     0.607170000000     0.338200000000     0.0474942  
H552     H      0.363180000000     0.594940000000     0.249810000000     0.0512965  
H553     H      0.492030000000     0.713910000000     0.198580000000     0.044792   
H554     H      0.535770000000     0.680230000000     0.221670000000     0.0447089  
H555     H      0.550930000000     0.670340000000     0.137680000000     0.0475557  
H556     H      0.520440000000     0.757250000000     0.181180000000     0.0453248  
H557     H      0.491750000000     0.716620000000     0.106230000000     0.0473484  
H558     H      0.537030000000     0.741190000000     0.103630000000     0.0374803  
H559     H      0.578880000000     0.712120000000     0.211660000000     0.047739   
H560     H      0.570760000000     0.714720000000     0.121390000000     0.0395269  
H561     H      0.288250000000     0.564400000000     0.040410000000     0.0381293  
H562     H      0.323480000000     0.610060000000     0.978310000000     0.040591   
H563     H      0.378400000000     0.615860000000     0.968840000000     0.0481697  
H564     H      0.265980000000     0.520600000000     0.020280000000     0.0461601  
H565     H      0.317470000000     0.537120000000     0.074420000000     0.0463595  
H566     H      0.318280000000     0.519800000000     0.013100000000     0.041827   
H567     H      0.327230000000     0.599430000000     0.913190000000     0.048399   
H568     H      0.360990000000     0.574810000000     0.939350000000     0.0422986  
H569     H      0.468940000000     0.519380000000     0.969880000000     0.0400311  
H570     H      0.437900000000     0.477330000000     0.041930000000     0.0398262  
H571     H      0.476470000000     0.472940000000     0.100540000000     0.0482414  
H572     H      0.488370000000     0.564260000000     0.982480000000     0.0480063  
H573     H      0.529020000000     0.542410000000     0.977960000000     0.0500266  
H574     H      0.530560000000     0.563190000000     0.037140000000     0.0442874  
H575     H      0.434860000000     0.493080000000     0.103670000000     0.0505879  
H576     H      0.495020000000     0.516820000000     0.118730000000     0.0445209  
In1      In     0.434330000000     0.595960000000     0.106740000000     2.40906    
In2      In     0.570520000000     0.471570000000     0.032210000000     2.43595    
In3      In     0.933870000000     0.827020000000     0.198980000000     2.40515    
In4      In     0.768030000000     0.568590000000     0.300550000000     2.40032    
In5      In     0.276730000000     0.790900000000     0.360700000000     2.40866    
In6      In     0.126150000000     0.898880000000     0.475960000000     2.40547    
In7      In     0.601590000000     0.148320000000     0.509270000000     2.39536    
In8      In     0.465520000000     0.889360000000     0.642720000000     2.40216    
In9      In     0.937360000000     0.119340000000     0.655770000000     2.39515    
In10     In     0.797730000000     0.239910000000     0.779120000000     2.39431    
In11     In     0.244920000000     0.493580000000     0.843700000000     2.41223    
In12     In     0.117470000000     0.231010000000     0.964240000000     2.39192    
In13     In     0.922550000000     0.807680000000     0.689810000000     2.40305    
In14     In     0.787280000000     0.553980000000     0.807240000000     2.40007    
In15     In     0.226700000000     0.123690000000     0.174770000000     2.39875    
In16     In     0.488710000000     0.231460000000     0.279660000000     2.39042    
In17     In     0.869020000000     0.466870000000     0.488750000000     2.42847    
In18     In     0.127010000000     0.570100000000     0.592690000000     2.41552    
In19     In     0.154490000000     0.238970000000     0.459890000000     2.39998    
In20     In     0.260430000000     0.498860000000     0.337760000000     2.39925    
In21     In     0.475330000000     0.877600000000     0.132000000000     2.39841    
In22     In     0.602590000000     0.140030000000     0.014410000000     2.41065    
In23     In     0.841930000000     0.916090000000     0.961130000000     2.40706    
In24     In     0.580400000000     0.788580000000     0.859600000000     2.40517    
In25     In     0.170420000000     0.601880000000     0.111550000000     2.39089    
In26     In     0.908850000000     0.450580000000     0.994130000000     2.3899     
In27     In     0.241590000000     0.119390000000     0.673250000000     2.39615    
In28     In     0.489170000000     0.251780000000     0.826780000000     2.38881    
In29     In     0.231120000000     0.781990000000     0.812600000000     2.40224    
In30     In     0.117230000000     0.921340000000     0.949180000000     2.39452    
In31     In     0.578880000000     0.433670000000     0.521420000000     2.41588    
In32     In     0.461850000000     0.579040000000     0.624010000000     2.41299    
In33     In     0.913340000000     0.116890000000     0.182570000000     2.3981     
In34     In     0.789000000000     0.257020000000     0.273490000000     2.40263    
In35     In     0.834420000000     0.909780000000     0.449680000000     2.38596    
In36     In     0.569610000000     0.776720000000     0.349020000000     2.38568    
N1       N      0.735960000000     0.850020000000     0.408300000000    -0.165668   
N2       N      0.669270000000     0.831800000000     0.386520000000    -0.167022   
N3       N      0.883270000000     0.988900000000     0.349960000000    -0.166382   
N4       N      0.887710000000     0.038890000000     0.282800000000    -0.165851   
N5       N      0.859580000000     0.162680000000     0.217750000000    -0.16573    
N6       N      0.845630000000     0.213980000000     0.241150000000    -0.165435   
N7       N      0.475090000000     0.639350000000     0.500930000000    -0.166506   
N8       N      0.521990000000     0.698150000000     0.449760000000    -0.165778   
N9       N      0.535400000000     0.489080000000     0.559050000000    -0.164791   
N10      N      0.494270000000     0.512500000000     0.597660000000    -0.165752   
N11      N      0.149300000000     0.856640000000     0.905900000000    -0.165643   
N12      N      0.195280000000     0.843210000000     0.857830000000    -0.166282   
N13      N      0.549890000000     0.364960000000     0.637770000000    -0.167238   
N14      N      0.536200000000     0.310420000000     0.701890000000    -0.166128   
N15      N      0.154830000000     0.998260000000     0.844380000000    -0.167907   
N16      N      0.173470000000     0.050940000000     0.774050000000    -0.166296   
N17      N      0.335640000000     0.166700000000     0.735520000000    -0.165909   
N18      N      0.393930000000     0.180000000000     0.787550000000    -0.164567   
N19      N      0.854020000000     0.377890000000     0.100660000000    -0.165994   
N20      N      0.805730000000     0.327120000000     0.163460000000    -0.165853   
N21      N      0.214790000000     0.713570000000     0.925640000000    -0.166422   
N22      N      0.220690000000     0.674760000000     0.003220000000    -0.166355   
N23      N      0.006680000000     0.499510000000     0.041950000000    -0.166629   
N24      N      0.072370000000     0.550850000000     0.065380000000    -0.166566   
N25      N      0.554270000000     0.693650000000     0.811390000000    -0.166437   
N26      N      0.516380000000     0.648840000000     0.733570000000    -0.166669   
N27      N      0.864550000000     0.010680000000     0.004800000000    -0.165312   
N28      N      0.881100000000     0.074020000000     0.042640000000    -0.166174   
N29      N      0.746830000000     0.863900000000     0.904160000000    -0.165262   
N30      N      0.677560000000     0.837420000000     0.908660000000    -0.166167   
N31      N      0.539370000000     0.203520000000     0.871380000000    -0.16769    
N32      N      0.574900000000     0.169640000000     0.885580000000    -0.166715   
N33      N      0.508120000000     0.861350000000     0.267680000000    -0.164815   
N34      N      0.533600000000     0.841830000000     0.348610000000    -0.16538    
N35      N      0.506420000000     0.830910000000     0.031090000000    -0.166796   
N36      N      0.519000000000     0.787360000000     0.972840000000    -0.16802    
N37      N      0.566110000000     0.041760000000     0.056810000000    -0.165441   
N38      N      0.517250000000     0.976490000000     0.087870000000    -0.165845   
N39      N      0.204620000000     0.537800000000     0.147660000000    -0.166153   
N40      N      0.229820000000     0.499810000000     0.191970000000    -0.165401   
N41      N      0.217030000000     0.189360000000     0.626340000000    -0.168101   
N42      N      0.199040000000     0.235700000000     0.592370000000    -0.166589   
N43      N      0.233330000000     0.403060000000     0.384480000000    -0.166972   
N44      N      0.187720000000     0.335660000000     0.410440000000    -0.167433   
N45      N      0.156010000000     0.664860000000     0.645420000000    -0.166689   
N46      N      0.178170000000     0.728550000000     0.688050000000    -0.165815   
N47      N      0.214440000000     0.534740000000     0.431060000000    -0.166522   
N48      N      0.192870000000     0.572420000000     0.486650000000    -0.16683    
N49      N      0.843900000000     0.371780000000     0.443720000000    -0.165405   
N50      N      0.826320000000     0.307700000000     0.407210000000    -0.166542   
N51      N      0.032090000000     0.523680000000     0.535100000000    -0.166828   
N52      N      0.966240000000     0.510580000000     0.534900000000    -0.165659   
N53      N      0.535710000000     0.333310000000     0.307570000000    -0.166388   
N54      N      0.553330000000     0.374490000000     0.394030000000    -0.165037   
N55      N      0.536900000000     0.212880000000     0.164140000000    -0.166729   
N56      N      0.560470000000     0.173170000000     0.119690000000    -0.166343   
N57      N      0.187180000000     0.025420000000     0.128540000000    -0.167052   
N58      N      0.159350000000     0.960520000000     0.087390000000    -0.164776   
N59      N      0.176940000000     0.187060000000     0.355440000000    -0.165745   
N60      N      0.182160000000     0.137600000000     0.299990000000    -0.166853   
N61      N      0.325910000000     0.159720000000     0.204200000000    -0.164776   
N62      N      0.390770000000     0.198470000000     0.245190000000    -0.164658   
N63      N      0.856390000000     0.558500000000     0.908910000000    -0.166329   
N64      N      0.880040000000     0.517420000000     0.947830000000    -0.166813   
N65      N      0.793150000000     0.509570000000     0.675380000000    -0.167501   
N66      N      0.829790000000     0.494090000000     0.606700000000    -0.167617   
N67      N      0.880420000000     0.853780000000     0.465040000000    -0.167517   
N68      N      0.899560000000     0.833380000000     0.552910000000    -0.16397    
N69      N      0.904870000000     0.915290000000     0.852320000000    -0.168893   
N70      N      0.907890000000     0.867550000000     0.789850000000    -0.167199   
N71      N      0.861120000000     0.712250000000     0.745110000000    -0.165915   
N72      N      0.811150000000     0.652140000000     0.788850000000    -0.165333   
N73      N      0.013690000000     0.185730000000     0.173250000000    -0.168159   
N74      N      0.057760000000     0.205970000000     0.090570000000    -0.165134   
N75      N      0.209440000000     0.175780000000     0.064220000000    -0.166185   
N76      N      0.191710000000     0.209720000000     0.993330000000    -0.167297   
N77      N      0.320600000000     0.513470000000     0.744470000000    -0.165281   
N78      N      0.364850000000     0.517110000000     0.668870000000    -0.167683   
N79      N      0.175650000000     0.507170000000     0.767730000000    -0.167234   
N80      N      0.128100000000     0.515560000000     0.714740000000    -0.166049   
N81      N      0.193370000000     0.394030000000     0.885780000000    -0.165401   
N82      N      0.172490000000     0.332530000000     0.936420000000    -0.164335   
N83      N      0.702320000000     0.174060000000     0.994800000000    -0.165671   
N84      N      0.745620000000     0.201670000000     0.911530000000    -0.165421   
N85      N      0.883920000000     0.388330000000     0.870840000000    -0.164321   
N86      N      0.863440000000     0.341660000000     0.791310000000    -0.168279   
N87      N      0.054280000000     0.190100000000     0.491520000000    -0.166054   
N88      N      0.987040000000     0.156270000000     0.521120000000    -0.166311   
N89      N      0.876690000000     0.018880000000     0.623090000000    -0.165633   
N90      N      0.838210000000     0.952450000000     0.588030000000    -0.166093   
N91      N      0.052270000000     0.184740000000     0.845120000000    -0.168281   
N92      N      0.013710000000     0.150100000000     0.759070000000    -0.165783   
N93      N      0.851730000000     0.195690000000     0.735600000000    -0.165441   
N94      N      0.874060000000     0.151600000000     0.704480000000    -0.166386   
N95      N      0.329870000000     0.839610000000     0.772720000000    -0.167848   
N96      N      0.397730000000     0.881350000000     0.749450000000    -0.166345   
N97      N      0.529160000000     0.860010000000     0.700150000000    -0.168017   
N98      N      0.573380000000     0.840680000000     0.738480000000    -0.165888   
N99      N      0.649700000000     0.166520000000     0.372710000000    -0.163682   
N100     N      0.689710000000     0.185260000000     0.285880000000    -0.168141   
N101     N      0.521400000000     0.159510000000     0.475960000000    -0.167077   
N102     N      0.489590000000     0.179900000000     0.406370000000    -0.166965   
N103     N      0.723340000000     0.216710000000     0.674820000000    -0.166428   
N104     N      0.674820000000     0.213320000000     0.607510000000    -0.16725    
N105     N      0.520220000000     0.987400000000     0.593800000000    -0.164922   
N106     N      0.568590000000     0.054850000000     0.571940000000    -0.165553   
N107     N      0.014860000000     0.818100000000     0.669670000000    -0.16725    
N108     N      0.063550000000     0.849340000000     0.594600000000    -0.16556    
N109     N      0.193500000000     0.996280000000     0.517760000000    -0.167784   
N110     N      0.237650000000     0.062020000000     0.551670000000    -0.165497   
N111     N      0.374350000000     0.838740000000     0.145680000000    -0.166924   
N112     N      0.330240000000     0.817700000000     0.228220000000    -0.164745   
N113     N      0.187250000000     0.654290000000     0.244760000000    -0.164891   
N114     N      0.202540000000     0.693770000000     0.332620000000    -0.166416   
N115     N      0.351860000000     0.817350000000     0.464630000000    -0.16692    
N116     N      0.406030000000     0.829570000000     0.526690000000    -0.166353   
N117     N      0.230540000000     0.841690000000     0.410250000000    -0.165906   
N118     N      0.176520000000     0.851730000000     0.428720000000    -0.165517   
N119     N      0.672940000000     0.509480000000     0.484100000000    -0.16612    
N120     N      0.734830000000     0.559440000000     0.447240000000    -0.16779    
N121     N      0.818670000000     0.517940000000     0.278990000000    -0.166586   
N122     N      0.841230000000     0.494960000000     0.358710000000    -0.165191   
N123     N      0.015740000000     0.870890000000     0.969300000000    -0.166966   
N124     N      0.978560000000     0.851550000000     0.059130000000    -0.164443   
N125     N      0.846750000000     0.873370000000     0.095170000000    -0.165315   
N126     N      0.856380000000     0.844800000000     0.182110000000    -0.167515   
N127     N      0.057480000000     0.887070000000     0.367720000000    -0.165827   
N128     N      0.013010000000     0.884710000000     0.293180000000    -0.166425   
N129     N      0.893230000000     0.728990000000     0.246680000000    -0.165899   
N130     N      0.834730000000     0.666910000000     0.264720000000    -0.164646   
N131     N      0.649090000000     0.498710000000     0.935540000000    -0.166376   
N132     N      0.689660000000     0.502490000000     0.854190000000    -0.16713    
N133     N      0.513030000000     0.375570000000     0.977310000000    -0.16566    
N134     N      0.478290000000     0.311160000000     0.932750000000    -0.167592   
N135     N      0.621840000000     0.507810000000     0.165490000000    -0.166231   
N136     N      0.684870000000     0.530590000000     0.209260000000    -0.166736   
N137     N      0.401090000000     0.581640000000     0.253560000000    -0.16468    
N138     N      0.362030000000     0.560910000000     0.340520000000    -0.166785   
N139     N      0.517630000000     0.689530000000     0.122940000000    -0.166227   
N140     N      0.543400000000     0.729600000000     0.210010000000    -0.166391   
N141     N      0.352200000000     0.572780000000     0.019110000000    -0.167148   
N142     N      0.295080000000     0.557410000000     0.962300000000    -0.167374   
N143     N      0.508080000000     0.509840000000     0.043940000000    -0.165007   
N144     N      0.460700000000     0.530840000000     0.044960000000    -0.165299   
O1       O      0.490330000000     0.630970000000     0.123020000000    -0.508858   
O2       O      0.461820000000     0.654010000000     0.101890000000    -0.498519   
O3       O      0.435790000000     0.546820000000     0.106830000000    -0.491213   
O4       O      0.424560000000     0.569800000000     0.184360000000    -0.487175   
O5       O      0.409120000000     0.604790000000     0.037090000000    -0.498168   
O6       O      0.414490000000     0.610330000000     0.176630000000    -0.502436   
O7       O      0.459250000000     0.580770000000     0.044430000000    -0.50128    
O8       O      0.378200000000     0.565690000000     0.089360000000    -0.512159   
O9       O      0.605420000000     0.514360000000     0.085240000000    -0.516306   
O10      O      0.584700000000     0.463770000000     0.113190000000    -0.494826   
O11      O      0.551920000000     0.506940000000     0.006270000000    -0.494389   
O12      O      0.604140000000     0.502940000000     0.965550000000    -0.493518   
O13      O      0.546440000000     0.413760000000     0.039790000000    -0.494274   
O14      O      0.614870000000     0.467920000000     0.002610000000    -0.516332   
O15      O      0.525730000000     0.472480000000     0.067330000000    -0.513177   
O16      O      0.533870000000     0.433350000000     0.974840000000    -0.515696   
O17      O      0.879980000000     0.810870000000     0.176440000000    -0.514125   
O18      O      0.909740000000     0.859880000000     0.209360000000    -0.500576   
O19      O      0.914260000000     0.770730000000     0.184860000000    -0.490879   
O20      O      0.956620000000     0.816330000000     0.129240000000    -0.487997   
O21      O      0.956250000000     0.855420000000     0.274270000000    -0.493482   
O22      O      0.953420000000     0.861350000000     0.128410000000    -0.500449   
O23      O      0.914400000000     0.786210000000     0.261630000000    -0.503655   
O24      O      0.989750000000     0.855030000000     0.218710000000    -0.509484   
O25      O      0.734870000000     0.574450000000     0.240850000000    -0.499036   
O26      O      0.718390000000     0.524950000000     0.269360000000    -0.49608    
O27      O      0.801540000000     0.624390000000     0.321900000000    -0.49977    
O28      O      0.740170000000     0.578400000000     0.364230000000    -0.509613   
O29      O      0.770090000000     0.520410000000     0.284930000000    -0.495443   
O30      O      0.765770000000     0.552210000000     0.384220000000    -0.506754   
O31      O      0.800820000000     0.610230000000     0.243820000000    -0.492126   
O32      O      0.816560000000     0.566920000000     0.290620000000    -0.500802   
O33      O      0.330710000000     0.823320000000     0.388110000000    -0.51266    
O34      O      0.297000000000     0.783280000000     0.436980000000    -0.492134   
O35      O      0.256280000000     0.826710000000     0.348100000000    -0.492528   
O36      O      0.304290000000     0.828110000000     0.295630000000    -0.486437   
O37      O      0.254910000000     0.733370000000     0.363490000000    -0.497767   
O38      O      0.298770000000     0.778890000000     0.290930000000    -0.502865   
O39      O      0.251130000000     0.805410000000     0.422330000000    -0.507275   
O40      O      0.224040000000     0.751690000000     0.333530000000    -0.51176    
O41      O      0.174020000000     0.938730000000     0.516070000000    -0.510869   
O42      O      0.146880000000     0.956440000000     0.473020000000    -0.508952   
O43      O      0.146690000000     0.863080000000     0.488670000000    -0.497458   
O44      O      0.085720000000     0.850610000000     0.514840000000    -0.495856   
O45      O      0.076310000000     0.894010000000     0.451040000000    -0.500237   
O46      O      0.106860000000     0.897100000000     0.556660000000    -0.505377   
O47      O      0.156060000000     0.888130000000     0.416790000000    -0.495297   
O48      O      0.109070000000     0.895170000000     0.392830000000    -0.49147    
O49      O      0.548150000000     0.128290000000     0.479460000000    -0.511645   
O50      O      0.574330000000     0.178600000000     0.509180000000    -0.503381   
O51      O      0.591520000000     0.093700000000     0.505960000000    -0.486864   
O52      O      0.631290000000     0.137840000000     0.449500000000    -0.482906   
O53      O      0.656050000000     0.188410000000     0.528520000000    -0.505218   
O54      O      0.617550000000     0.174970000000     0.432080000000    -0.499532   
O55      O      0.578300000000     0.109650000000     0.574070000000    -0.50021    
O56      O      0.619700000000     0.174360000000     0.587320000000    -0.494202   
O57      O      0.452650000000     0.877400000000     0.558140000000    -0.495163   
O58      O      0.419340000000     0.841240000000     0.612200000000    -0.499741   
O59      O      0.485800000000     0.946290000000     0.651870000000    -0.49485    
O60      O      0.425120000000     0.900070000000     0.672070000000    -0.497921   
O61      O      0.486000000000     0.852950000000     0.647270000000    -0.509854   
O62      O      0.439230000000     0.871520000000     0.719930000000    -0.504653   
O63      O      0.501250000000     0.930010000000     0.586300000000    -0.490615   
O64      O      0.510040000000     0.897800000000     0.692260000000    -0.509549   
O65      O      0.989730000000     0.157060000000     0.686050000000    -0.507061   
O66      O      0.960160000000     0.112200000000     0.729650000000    -0.491255   
O67      O      0.903090000000     0.141180000000     0.642050000000    -0.495146   
O68      O      0.962340000000     0.161050000000     0.595110000000    -0.488487   
O69      O      0.925640000000     0.064070000000     0.655430000000    -0.490756   
O70      O      0.960680000000     0.114180000000     0.581710000000    -0.504912   
O71      O      0.909980000000     0.130950000000     0.719030000000    -0.504675   
O72      O      0.887770000000     0.074040000000     0.629220000000    -0.506509   
O73      O      0.849790000000     0.285650000000     0.795750000000    -0.510251   
O74      O      0.811150000000     0.295510000000     0.773930000000    -0.506118   
O75      O      0.828200000000     0.213930000000     0.796940000000    -0.49209    
O76      O      0.780830000000     0.246280000000     0.858660000000    -0.501869   
O77      O      0.742630000000     0.218210000000     0.756710000000    -0.502102   
O78      O      0.766460000000     0.196190000000     0.833960000000    -0.495308   
O79      O      0.819090000000     0.219730000000     0.718900000000    -0.497373   
O80      O      0.779070000000     0.238940000000     0.697440000000    -0.487379   
O81      O      0.205430000000     0.479860000000     0.781900000000    -0.509236   
O82      O      0.214030000000     0.519780000000     0.832990000000    -0.506848   
O83      O      0.236190000000     0.439710000000     0.843060000000    -0.49636    
O84      O      0.290960000000     0.490610000000     0.819310000000    -0.494509   
O85      O      0.283360000000     0.545520000000     0.876560000000    -0.506112   
O86      O      0.273670000000     0.515530000000     0.769440000000    -0.500619   
O87      O      0.203200000000     0.448960000000     0.888280000000    -0.498482   
O88      O      0.254590000000     0.505830000000     0.929250000000    -0.504705   
O89      O      0.099890000000     0.229190000000     0.881460000000    -0.505938   
O90      O      0.071630000000     0.185310000000     0.926880000000    -0.504623   
O91      O      0.128400000000     0.285500000000     0.975190000000    -0.484253   
O92      O      0.082390000000     0.238250000000     0.018200000000    -0.488366   
O93      O      0.142940000000     0.199290000000     0.952180000000    -0.502125   
O94      O      0.095230000000     0.200950000000     0.037900000000    -0.501815   
O95      O      0.160010000000     0.277230000000     0.924870000000    -0.496697   
O96      O      0.165210000000     0.240580000000     0.004730000000    -0.505168   
O97      O      0.899630000000     0.840040000000     0.712600000000    -0.508541   
O98      O      0.931470000000     0.835330000000     0.766480000000    -0.49222    
O99      O      0.879480000000     0.752840000000     0.681510000000    -0.489378   
O100     O      0.887660000000     0.797580000000     0.622060000000    -0.485865   
O101     O      0.979610000000     0.836450000000     0.699240000000    -0.503956   
O102     O      0.936180000000     0.842250000000     0.619570000000    -0.499083   
O103     O      0.904420000000     0.767710000000     0.753260000000    -0.503031   
O104     O      0.957190000000     0.789070000000     0.660130000000    -0.512732   
O105     O      0.734620000000     0.546980000000     0.813290000000    -0.504207   
O106     O      0.742480000000     0.509090000000     0.846460000000    -0.496521   
O107     O      0.811100000000     0.608990000000     0.835210000000    -0.499687   
O108     O      0.803980000000     0.549720000000     0.887750000000    -0.498889   
O109     O      0.779970000000     0.507780000000     0.761010000000    -0.503495   
O110     O      0.839910000000     0.564040000000     0.827680000000    -0.506039   
O111     O      0.785970000000     0.596250000000     0.763220000000    -0.486061   
O112     O      0.801570000000     0.555500000000     0.723450000000    -0.501444   
O113     O      0.230030000000     0.081170000000     0.134270000000    -0.507152   
O114     O      0.184620000000     0.067680000000     0.173610000000    -0.501484   
O115     O      0.282810000000     0.159260000000     0.158020000000    -0.495418   
O116     O      0.232140000000     0.172560000000     0.141380000000    -0.500256   
O117     O      0.224960000000     0.133970000000     0.260240000000    -0.496803   
O118     O      0.208620000000     0.128010000000     0.095260000000    -0.505511   
O119     O      0.269290000000     0.124840000000     0.220610000000    -0.494461   
O120     O      0.182930000000     0.124600000000     0.214880000000    -0.499774   
O121     O      0.489520000000     0.208500000000     0.201870000000    -0.499767   
O122     O      0.535860000000     0.236940000000     0.241190000000    -0.494933   
O123     O      0.432450000000     0.198790000000     0.294600000000    -0.503292   
O124     O      0.492110000000     0.226310000000     0.366380000000    -0.504398   
O125     O      0.535540000000     0.283310000000     0.293920000000    -0.49379    
O126     O      0.485010000000     0.185060000000     0.319490000000    -0.505174   
O127     O      0.447900000000     0.231160000000     0.229170000000    -0.485515   
O128     O      0.488530000000     0.281300000000     0.291010000000    -0.497557   
O129     O      0.880820000000     0.429400000000     0.450420000000    -0.512482   
O130     O      0.832900000000     0.409530000000     0.486300000000    -0.495438   
O131     O      0.924410000000     0.507440000000     0.482750000000    -0.493146   
O132     O      0.831000000000     0.458610000000     0.426450000000    -0.506772   
O133     O      0.840260000000     0.455680000000     0.564900000000    -0.499326   
O134     O      0.879920000000     0.502390000000     0.420880000000    -0.489441   
O135     O      0.910130000000     0.469480000000     0.540270000000    -0.509201   
O136     O      0.856510000000     0.503260000000     0.529010000000    -0.5201     
O137     O      0.142650000000     0.568200000000     0.510270000000    -0.504559   
O138     O      0.176980000000     0.574680000000     0.569590000000    -0.502202   
O139     O      0.073040000000     0.526110000000     0.588350000000    -0.50682    
O140     O      0.131470000000     0.563160000000     0.678180000000    -0.502845   
O141     O      0.164070000000     0.627180000000     0.597240000000    -0.508316   
O142     O      0.123530000000     0.522770000000     0.628370000000    -0.496716   
O143     O      0.086840000000     0.568330000000     0.539210000000    -0.499959   
O144     O      0.117290000000     0.607810000000     0.635920000000    -0.502268   
O145     O      0.105770000000     0.238610000000     0.478450000000    -0.503145   
O146     O      0.102960000000     0.190980000000     0.467750000000    -0.497596   
O147     O      0.171940000000     0.294980000000     0.473420000000    -0.504124   
O148     O      0.200860000000     0.254510000000     0.509820000000    -0.491604   
O149     O      0.186410000000     0.217270000000     0.430430000000    -0.500458   
O150     O      0.152680000000     0.222370000000     0.542730000000    -0.505686   
O151     O      0.169990000000     0.279020000000     0.396560000000    -0.506316   
O152     O      0.144770000000     0.209360000000     0.384910000000    -0.492907   
O153     O      0.220320000000     0.513150000000     0.354380000000    -0.500489   
O154     O      0.255150000000     0.520920000000     0.413420000000    -0.496113   
O155     O      0.248720000000     0.444390000000     0.322420000000    -0.499677   
O156     O      0.220620000000     0.479410000000     0.274730000000    -0.491528   
O157     O      0.307870000000     0.551230000000     0.338950000000    -0.500483   
O158     O      0.270430000000     0.517780000000     0.254920000000    -0.499912   
O159     O      0.245620000000     0.458030000000     0.399070000000    -0.505025   
O160     O      0.314000000000     0.507990000000     0.341700000000    -0.505751   
O161     O      0.429200000000     0.883190000000     0.144380000000    -0.507756   
O162     O      0.420930000000     0.833460000000     0.131520000000    -0.497303   
O163     O      0.500230000000     0.934440000000     0.149090000000    -0.494856   
O164     O      0.515470000000     0.891770000000     0.193460000000    -0.488016   
O165     O      0.471660000000     0.851420000000     0.055130000000    -0.493245   
O166     O      0.466420000000     0.850120000000     0.208690000000    -0.500325   
O167     O      0.492180000000     0.919040000000     0.071060000000    -0.504257   
O168     O      0.509340000000     0.857230000000     0.107670000000    -0.508082   
O169     O      0.605700000000     0.170460000000     0.086520000000    -0.492767   
O170     O      0.558680000000     0.142870000000     0.048150000000    -0.512963   
O171     O      0.578440000000     0.083480000000     0.996480000000    -0.491688   
O172     O      0.567830000000     0.129500000000     0.945710000000    -0.492223   
O173     O      0.658370000000     0.180680000000     0.022990000000    -0.489693   
O174     O      0.611960000000     0.178190000000     0.950860000000    -0.51023    
O175     O      0.590790000000     0.099090000000     0.074230000000    -0.508561   
O176     O      0.646230000000     0.133140000000     0.989860000000    -0.50911    
O177     O      0.860110000000     0.920720000000     0.878590000000    -0.513243   
O178     O      0.887510000000     0.912100000000     0.935920000000    -0.510924   
O179     O      0.791690000000     0.867220000000     0.948490000000    -0.492099   
O180     O      0.857590000000     0.919320000000     0.044800000000    -0.501203   
O181     O      0.877800000000     0.973240000000     0.966770000000    -0.505492   
O182     O      0.830050000000     0.870220000000     0.011110000000    -0.486676   
O183     O      0.797710000000     0.913020000000     0.917110000000    -0.494938   
O184     O      0.827940000000     0.953110000000     0.995500000000    -0.499877   
O185     O      0.589690000000     0.751830000000     0.812710000000    -0.499083   
O186     O      0.546010000000     0.731040000000     0.859910000000    -0.508272   
O187     O      0.632340000000     0.835620000000     0.868020000000    -0.496756   
O188     O      0.566020000000     0.791740000000     0.776700000000    -0.499552   
O189     O      0.531780000000     0.785260000000     0.888090000000    -0.505931   
O190     O      0.588090000000     0.836930000000     0.821410000000    -0.491694   
O191     O      0.625030000000     0.789520000000     0.899990000000    -0.497126   
O192     O      0.567110000000     0.789130000000     0.943770000000    -0.509783   
O193     O      0.162260000000     0.550310000000     0.137340000000    -0.507096   
O194     O      0.211600000000     0.587890000000     0.114330000000    -0.498744   
O195     O      0.113820000000     0.577330000000     0.126640000000    -0.495625   
O196     O      0.161020000000     0.635290000000     0.166430000000    -0.483724   
O197     O      0.193960000000     0.619110000000     0.031610000000    -0.490174   
O198     O      0.194670000000     0.618790000000     0.190310000000    -0.500035   
O199     O      0.129320000000     0.574160000000     0.051320000000    -0.502815   
O200     O      0.198620000000     0.656900000000     0.083890000000    -0.504859   
O201     O      0.883560000000     0.433870000000     0.073320000000    -0.483843   
O202     O      0.879300000000     0.395800000000     0.021970000000    -0.502914   
O203     O      0.965440000000     0.473700000000     0.980300000000    -0.495147   
O204     O      0.876830000000     0.424680000000     0.923890000000    -0.49991    
O205     O      0.875880000000     0.474880000000     0.000810000000    -0.500044   
O206     O      0.917920000000     0.416910000000     0.939790000000    -0.484645   
O207     O      0.949810000000     0.477530000000     0.055090000000    -0.50633    
O208     O      0.915910000000     0.495950000000     0.946970000000    -0.508284   
O209     O      0.196880000000     0.067160000000     0.693680000000    -0.5011     
O210     O      0.218960000000     0.103340000000     0.753540000000    -0.491111   
O211     O      0.297950000000     0.138230000000     0.670360000000    -0.495958   
O212     O      0.227740000000     0.101560000000     0.590610000000    -0.50168    
O213     O      0.205390000000     0.139610000000     0.666620000000    -0.511299   
O214     O      0.252580000000     0.081260000000     0.634530000000    -0.49225    
O215     O      0.278770000000     0.147880000000     0.738190000000    -0.494455   
O216     O      0.254270000000     0.169840000000     0.635250000000    -0.507243   
O217     O      0.537110000000     0.251350000000     0.849280000000    -0.499375   
O218     O      0.491200000000     0.204300000000     0.849820000000    -0.504298   
O219     O      0.432700000000     0.220660000000     0.842370000000    -0.497598   
O220     O      0.491050000000     0.270040000000     0.909400000000    -0.503713   
O221     O      0.534540000000     0.296680000000     0.787380000000    -0.493426   
O222     O      0.476580000000     0.292210000000     0.850460000000    -0.509362   
O223     O      0.451270000000     0.210340000000     0.774000000000    -0.482648   
O224     O      0.491400000000     0.265430000000     0.742350000000    -0.493879   
O225     O      0.274950000000     0.827830000000     0.773590000000    -0.507156   
O226     O      0.285970000000     0.794600000000     0.815010000000    -0.509474   
O227     O      0.198540000000     0.806140000000     0.801370000000    -0.498315   
O228     O      0.181920000000     0.745320000000     0.772290000000    -0.494493   
O229     O      0.220590000000     0.729710000000     0.840640000000    -0.498396   
O230     O      0.227550000000     0.764990000000     0.729820000000    -0.505353   
O231     O      0.228840000000     0.819500000000     0.868240000000    -0.494096   
O232     O      0.225400000000     0.765800000000     0.896370000000    -0.498024   
O233     O      0.145390000000     0.977740000000     0.927030000000    -0.505027   
O234     O      0.124040000000     0.941680000000     0.867140000000    -0.500636   
O235     O      0.145240000000     0.892670000000     0.963550000000    -0.492587   
O236     O      0.161970000000     0.947330000000     0.003040000000    -0.487208   
O237     O      0.066590000000     0.873130000000     0.961330000000    -0.509953   
O238     O      0.113530000000     0.932500000000     0.033620000000    -0.497806   
O239     O      0.120000000000     0.884660000000     0.892380000000    -0.491327   
O240     O      0.066720000000     0.919680000000     0.954540000000    -0.504481   
O241     O      0.615490000000     0.485570000000     0.488850000000    -0.513381   
O242     O      0.636300000000     0.456930000000     0.519630000000    -0.490874   
O243     O      0.542390000000     0.452580000000     0.506120000000    -0.489022   
O244     O      0.543940000000     0.405860000000     0.454240000000    -0.487151   
O245     O      0.588240000000     0.415590000000     0.598810000000    -0.496893   
O246     O      0.589450000000     0.404690000000     0.460030000000    -0.506207   
O247     O      0.570490000000     0.467820000000     0.575610000000    -0.50695    
O248     O      0.542220000000     0.383840000000     0.560100000000    -0.518313   
O249     O      0.475620000000     0.594300000000     0.540230000000    -0.498714   
O250     O      0.459030000000     0.622260000000     0.584350000000    -0.501719   
O251     O      0.494720000000     0.556280000000     0.642600000000    -0.501734   
O252     O      0.511190000000     0.622480000000     0.655860000000    -0.502577   
O253     O      0.405400000000     0.560420000000     0.619380000000    -0.503613   
O254     O      0.467300000000     0.603770000000     0.702000000000    -0.507408   
O255     O      0.462530000000     0.537040000000     0.577600000000    -0.498098   
O256     O      0.421420000000     0.535470000000     0.671050000000    -0.508293   
O257     O      0.957880000000     0.170890000000     0.172270000000    -0.510147   
O258     O      0.968860000000     0.131930000000     0.188740000000    -0.507085   
O259     O      0.885190000000     0.144230000000     0.160910000000    -0.496501   
O260     O      0.872070000000     0.085540000000     0.125030000000    -0.494699   
O261     O      0.908570000000     0.095560000000     0.263510000000    -0.49284    
O262     O      0.922940000000     0.106170000000     0.100840000000    -0.503743   
O263     O      0.889090000000     0.136020000000     0.240050000000    -0.494225   
O264     O      0.894340000000     0.060970000000     0.201310000000    -0.500751   
O265     O      0.801770000000     0.310350000000     0.247780000000    -0.499664   
O266     O      0.791640000000     0.273350000000     0.190330000000    -0.493013   
O267     O      0.817930000000     0.230670000000     0.297000000000    -0.495054   
O268     O      0.782410000000     0.271040000000     0.355010000000    -0.504457   
O269     O      0.732910000000     0.239760000000     0.269820000000    -0.508453   
O270     O      0.832150000000     0.292990000000     0.325140000000    -0.501337   
O271     O      0.815460000000     0.239640000000     0.217680000000    -0.49225    
O272     O      0.746110000000     0.202380000000     0.286050000000    -0.510019   
O273     O      0.833470000000     0.859210000000     0.457310000000    -0.507342   
O274     O      0.881190000000     0.904210000000     0.452070000000    -0.501281   
O275     O      0.778850000000     0.873370000000     0.467820000000    -0.494573   
O276     O      0.817350000000     0.936270000000     0.506200000000    -0.492605   
O277     O      0.863560000000     0.966410000000     0.430050000000    -0.502692   
O278     O      0.853710000000     0.923800000000     0.531760000000    -0.500321   
O279     O      0.792110000000     0.886740000000     0.389890000000    -0.494807   
O280     O      0.853550000000     0.931570000000     0.369360000000    -0.491751   
O281     O      0.552820000000     0.722910000000     0.376630000000    -0.499507   
O282     O      0.539570000000     0.752850000000     0.422470000000    -0.489177   
O283     O      0.625520000000     0.809580000000     0.328220000000    -0.499134   
O284     O      0.542390000000     0.765280000000     0.271760000000    -0.501528   
O285     O      0.527480000000     0.788760000000     0.359130000000    -0.488252   
O286     O      0.573740000000     0.744410000000     0.285380000000    -0.490311   
O287     O      0.612960000000     0.798390000000     0.406770000000    -0.508101   
O288     O      0.576510000000     0.829860000000     0.341770000000    -0.501844   


