data_structure

_audit_creation_method RASPA-1.0
_audit_creation_date 2023-6-5
_audit_author_name 'Poobodin Mano'

_cell_length_a    30.1178
_cell_length_b    29.5349
_cell_length_c    35.7032
_cell_angle_alpha 89.5487
_cell_angle_beta  90.4513
_cell_angle_gamma 89.999
_cell_volume      31757

_symmetry_cell_setting          triclinic
_symmetry_space_group_name_Hall 'P 1'
_symmetry_space_group_name_H-M  'P 1'
_symmetry_Int_Tables_number     1

_symmetry_equiv_pos_as_xyz 'x,y,z'

loop_
_atom_site_label
_atom_site_type_symbol
_atom_site_fract_x
_atom_site_fract_y
_atom_site_fract_z
_atom_site_charge
C1       C      0.320890000000     0.453180000000     0.963590000000     0.42174    
C2       C      0.313620000000     0.322910000000     0.405340000000     0.419575   
C3       C      0.435660000000     0.359880000000     0.474230000000     0.425908   
C4       C      0.311690000000     0.320590000000     0.025830000000     0.422088   
C5       C      0.340070000000     0.633600000000     0.470000000000     0.405474   
C6       C      0.310170000000     0.764860000000     0.031580000000     0.405065   
C7       C      0.440890000000     0.733470000000     0.990380000000     0.420914   
C8       C      0.320710000000     0.764000000000     0.412120000000     0.418786   
C9       C      0.612850000000     0.339410000000     0.991940000000     0.402946   
C10      C      0.735140000000     0.306920000000     0.415630000000     0.418989   
C11      C      0.716370000000     0.434870000000     0.458960000000     0.417226   
C12      C      0.734430000000     0.309250000000     0.039980000000     0.418206   
C13      C      0.723690000000     0.615590000000     0.941350000000     0.403901   
C14      C      0.738360000000     0.739590000000     0.393470000000     0.416637   
C15      C      0.615430000000     0.712780000000     0.467380000000     0.401286   
C16      C      0.733330000000     0.740410000000     0.020830000000     0.403701   
C17      C      0.826000000000     0.120150000000     0.244570000000     0.403741   
C18      C      0.812070000000     0.249470000000     0.286160000000     0.404367   
C19      C      0.938710000000     0.210030000000     0.219600000000     0.41741    
C20      C      0.823980000000     0.241370000000     0.160870000000     0.404871   
C21      C      0.937280000000     0.838880000000     0.192640000000     0.403239   
C22      C      0.812260000000     0.821940000000     0.269890000000     0.402927   
C23      C      0.837900000000     0.942450000000     0.220220000000     0.418173   
C24      C      0.815300000000     0.813170000000     0.144970000000     0.417458   
C25      C      0.115360000000     0.853510000000     0.209180000000     0.4223     
C26      C      0.243100000000     0.820340000000     0.163640000000     0.4206     
C27      C      0.217310000000     0.953280000000     0.224980000000     0.405404   
C28      C      0.239870000000     0.823240000000     0.282960000000     0.402969   
C29      C      0.117880000000     0.224110000000     0.204350000000     0.410142   
C30      C      0.232340000000     0.267540000000     0.278610000000     0.404893   
C31      C      0.233120000000     0.134390000000     0.225710000000     0.420115   
C32      C      0.245190000000     0.263160000000     0.158540000000     0.405875   
C33      C      0.228600000000     0.025090000000     0.190920000000    -0.0140354  
C34      C      0.213710000000     0.024300000000     0.260890000000    -0.0652397  
C35      C      0.260790000000     0.064360000000     0.196840000000    -0.00759356 
C36      C      0.245880000000     0.064370000000     0.265150000000     0.165883   
C37      C      0.006680000000     0.795530000000     0.203850000000    -0.0140455  
C38      C      0.006160000000     0.861570000000     0.160220000000    -0.0638626  
C39      C      0.045480000000     0.815840000000     0.225950000000    -0.00738707 
C40      C      0.044900000000     0.883620000000     0.181440000000     0.166683   
C41      C      0.843660000000     0.047100000000     0.275490000000    -0.0125233  
C42      C      0.779210000000     0.052870000000     0.232060000000    -0.0630491  
C43      C      0.865100000000     0.011000000000     0.251210000000    -0.00818184 
C44      C      0.798030000000     0.015220000000     0.207200000000     0.165258   
C45      C      0.046530000000     0.265300000000     0.207900000000    -0.0130311  
C46      C      0.049570000000     0.188770000000     0.178900000000    -0.0639066  
C47      C      0.008460000000     0.250110000000     0.233020000000    -0.00883489 
C48      C      0.010540000000     0.172670000000     0.203070000000     0.165326   
C49      C      0.819770000000     0.800460000000     0.336690000000    -0.013833   
C50      C      0.744490000000     0.808570000000     0.306930000000    -0.0638811  
C51      C      0.804800000000     0.757010000000     0.356360000000    -0.00836355 
C52      C      0.728940000000     0.765120000000     0.326760000000     0.165523   
C53      C      0.751990000000     0.808760000000     0.057320000000    -0.0140424  
C54      C      0.749890000000     0.732460000000     0.088520000000    -0.0643621  
C55      C      0.795160000000     0.819690000000     0.078170000000    -0.00863338 
C56      C      0.792980000000     0.743300000000     0.109990000000     0.165651   
C57      C      0.820560000000     0.289560000000     0.346410000000    -0.014402   
C58      C      0.745610000000     0.282370000000     0.315870000000    -0.0646418  
C59      C      0.800650000000     0.275470000000     0.384000000000    -0.0085816  
C60      C      0.725430000000     0.268280000000     0.353590000000     0.165552   
C61      C      0.807170000000     0.308190000000     0.120910000000    -0.0140553  
C62      C      0.801630000000     0.229900000000     0.094730000000    -0.0620884  
C63      C      0.761240000000     0.319420000000     0.104810000000    -0.00811889 
C64      C      0.755470000000     0.240810000000     0.078650000000     0.168445   
C65      C      0.706260000000     0.544570000000     0.408080000000    -0.0132194  
C66      C      0.772340000000     0.548480000000     0.949760000000    -0.0637696  
C67      C      0.687880000000     0.504200000000     0.429760000000    -0.00703551 
C68      C      0.757220000000     0.506280000000     0.971790000000     0.165941   
C69      C      0.232290000000     0.795700000000     0.348180000000    -0.0137628  
C70      C      0.301500000000     0.779620000000     0.311780000000    -0.0651355  
C71      C      0.260760000000     0.808410000000     0.382120000000    -0.00887861 
C72      C      0.330080000000     0.792050000000     0.345990000000     0.166178   
C73      C      0.307910000000     0.823730000000     0.080440000000    -0.0142761  
C74      C      0.243940000000     0.770180000000     0.071890000000    -0.0642447  
C75      C      0.308100000000     0.813570000000     0.122470000000    -0.007583   
C76      C      0.244050000000     0.760130000000     0.114150000000     0.166014   
C77      C      0.545970000000     0.754710000000     0.454060000000    -0.0156106  
C78      C      0.545420000000     0.682360000000     0.492800000000    -0.0656846  
C79      C      0.511310000000     0.774670000000     0.980440000000    -0.00859194 
C80      C      0.511960000000     0.704390000000     0.019160000000     0.168101   
C81      C      0.283310000000     0.322430000000     0.308440000000    -0.0142204  
C82      C      0.224280000000     0.283740000000     0.346090000000    -0.0638937  
C83      C      0.318220000000     0.308330000000     0.337570000000    -0.007872   
C84      C      0.259220000000     0.269370000000     0.375340000000     0.165749   
C85      C      0.239780000000     0.315950000000     0.104620000000    -0.0145601  
C86      C      0.312410000000     0.278670000000     0.121130000000    -0.0642838  
C87      C      0.245880000000     0.302610000000     0.063760000000    -0.00669695 
C88      C      0.318700000000     0.265810000000     0.079920000000     0.166296   
C89      C      0.541130000000     0.299830000000     0.983080000000    -0.0148848  
C90      C      0.544930000000     0.370440000000     0.020760000000    -0.0623783  
C91      C      0.504890000000     0.320570000000     0.458170000000    -0.00691741 
C92      C      0.508080000000     0.392200000000     0.496650000000     0.166451   
C93      C      0.344320000000     0.563300000000     0.433130000000    -0.0149335  
C94      C      0.326710000000     0.561090000000     0.502570000000    -0.0658969  
C95      C      0.311560000000     0.524210000000     0.927230000000    -0.00826277 
C96      C      0.292970000000     0.523480000000     0.994890000000     0.166546   
C97      C      0.320890000000     0.453180000000     0.463590000000     0.421851   
C98      C      0.313620000000     0.322910000000     0.905340000000     0.419571   
C99      C      0.435660000000     0.359880000000     0.974230000000     0.425848   
C100     C      0.311690000000     0.320590000000     0.525830000000     0.422176   
C101     C      0.340070000000     0.633600000000     0.970000000000     0.404725   
C102     C      0.310170000000     0.764860000000     0.531580000000     0.405315   
C103     C      0.440890000000     0.733470000000     0.490380000000     0.421976   
C104     C      0.320710000000     0.764000000000     0.912120000000     0.418661   
C105     C      0.612850000000     0.339410000000     0.491940000000     0.404025   
C106     C      0.735140000000     0.306920000000     0.915630000000     0.418943   
C107     C      0.716370000000     0.434870000000     0.958960000000     0.417353   
C108     C      0.734440000000     0.309250000000     0.539990000000     0.418347   
C109     C      0.723690000000     0.615590000000     0.441350000000     0.403981   
C110     C      0.738360000000     0.739590000000     0.893470000000     0.416631   
C111     C      0.615430000000     0.712780000000     0.967380000000     0.401157   
C112     C      0.733330000000     0.740410000000     0.520830000000     0.402823   
C113     C      0.826000000000     0.120150000000     0.744570000000     0.403495   
C114     C      0.812070000000     0.249470000000     0.786160000000     0.404365   
C115     C      0.938710000000     0.210030000000     0.719600000000     0.417402   
C116     C      0.823980000000     0.241370000000     0.660870000000     0.404864   
C117     C      0.937280000000     0.838880000000     0.692640000000     0.403233   
C118     C      0.812260000000     0.821940000000     0.769890000000     0.402923   
C119     C      0.837900000000     0.942450000000     0.720220000000     0.418165   
C120     C      0.815300000000     0.813160000000     0.644970000000     0.417435   
C121     C      0.115360000000     0.853510000000     0.709180000000     0.422441   
C122     C      0.243100000000     0.820340000000     0.663640000000     0.42046    
C123     C      0.217310000000     0.953280000000     0.724980000000     0.405405   
C124     C      0.239870000000     0.823240000000     0.782960000000     0.402967   
C125     C      0.117880000000     0.224110000000     0.704350000000     0.410138   
C126     C      0.232340000000     0.267540000000     0.778610000000     0.404891   
C127     C      0.233120000000     0.134390000000     0.725710000000     0.420116   
C128     C      0.245190000000     0.263160000000     0.658540000000     0.405868   
C129     C      0.228600000000     0.025090000000     0.690920000000    -0.0140319  
C130     C      0.213710000000     0.024300000000     0.760890000000    -0.0652338  
C131     C      0.260790000000     0.064360000000     0.696840000000    -0.00759112 
C132     C      0.245880000000     0.064370000000     0.765150000000     0.165879   
C133     C      0.006680000000     0.795530000000     0.703850000000    -0.014052   
C134     C      0.006160000000     0.861570000000     0.660220000000    -0.0638573  
C135     C      0.045480000000     0.815840000000     0.725950000000    -0.00734819 
C136     C      0.044900000000     0.883630000000     0.681430000000     0.166676   
C137     C      0.843660000000     0.047100000000     0.775490000000    -0.0125089  
C138     C      0.779210000000     0.052870000000     0.732060000000    -0.0630305  
C139     C      0.865100000000     0.011000000000     0.751210000000    -0.00821133 
C140     C      0.798030000000     0.015220000000     0.707200000000     0.165182   
C141     C      0.046530000000     0.265290000000     0.707900000000    -0.0129391  
C142     C      0.049570000000     0.188770000000     0.678900000000    -0.0638953  
C143     C      0.008460000000     0.250110000000     0.733020000000    -0.00887075 
C144     C      0.010540000000     0.172670000000     0.703070000000     0.165319   
C145     C      0.819770000000     0.800460000000     0.836690000000    -0.0138293  
C146     C      0.744490000000     0.808570000000     0.806930000000    -0.0639099  
C147     C      0.804800000000     0.757010000000     0.856360000000    -0.00836327 
C148     C      0.728940000000     0.765120000000     0.826760000000     0.165528   
C149     C      0.751990000000     0.808760000000     0.557320000000    -0.0141118  
C150     C      0.749890000000     0.732460000000     0.588520000000    -0.064349   
C151     C      0.795160000000     0.819690000000     0.578170000000    -0.00857935 
C152     C      0.792980000000     0.743300000000     0.609990000000     0.165642   
C153     C      0.820560000000     0.289560000000     0.846410000000    -0.0143716  
C154     C      0.745610000000     0.282370000000     0.815870000000    -0.0646378  
C155     C      0.800650000000     0.275470000000     0.884000000000    -0.00858417 
C156     C      0.725430000000     0.268280000000     0.853590000000     0.165548   
C157     C      0.807170000000     0.308190000000     0.620910000000    -0.0140409  
C158     C      0.801630000000     0.229900000000     0.594730000000    -0.0620885  
C159     C      0.761240000000     0.319420000000     0.604810000000    -0.00814684 
C160     C      0.755470000000     0.240810000000     0.578650000000     0.168465   
C161     C      0.706260000000     0.544570000000     0.908070000000    -0.0133244  
C162     C      0.772340000000     0.548480000000     0.449760000000    -0.0637071  
C163     C      0.687880000000     0.504190000000     0.929760000000    -0.00699791 
C164     C      0.757220000000     0.506280000000     0.471790000000     0.165859   
C165     C      0.232290000000     0.795700000000     0.848180000000    -0.0137637  
C166     C      0.301500000000     0.779620000000     0.811780000000    -0.0651314  
C167     C      0.260760000000     0.808410000000     0.882120000000    -0.00887527 
C168     C      0.330080000000     0.792050000000     0.845990000000     0.166172   
C169     C      0.307910000000     0.823730000000     0.580430000000    -0.0142399  
C170     C      0.243940000000     0.770180000000     0.571890000000    -0.0642296  
C171     C      0.308100000000     0.813570000000     0.622470000000    -0.00760841 
C172     C      0.244050000000     0.760130000000     0.614150000000     0.165983   
C173     C      0.545970000000     0.754710000000     0.954060000000    -0.0154559  
C174     C      0.545420000000     0.682360000000     0.992800000000    -0.0675068  
C175     C      0.511310000000     0.774670000000     0.480440000000    -0.00765284 
C176     C      0.511960000000     0.704390000000     0.519160000000     0.16672    
C177     C      0.283310000000     0.322430000000     0.808440000000    -0.0142095  
C178     C      0.224280000000     0.283740000000     0.846090000000    -0.0638868  
C179     C      0.318220000000     0.308330000000     0.837570000000    -0.0078926  
C180     C      0.259220000000     0.269370000000     0.875340000000     0.165748   
C181     C      0.239780000000     0.315950000000     0.604620000000    -0.0145668  
C182     C      0.312410000000     0.278670000000     0.621130000000    -0.0642687  
C183     C      0.245880000000     0.302610000000     0.563760000000    -0.00668291 
C184     C      0.318700000000     0.265810000000     0.579920000000     0.166291   
C185     C      0.541130000000     0.299830000000     0.483080000000    -0.0138791  
C186     C      0.544930000000     0.370440000000     0.520760000000    -0.0638029  
C187     C      0.504890000000     0.320570000000     0.958170000000    -0.0067379  
C188     C      0.508080000000     0.392200000000     0.996650000000     0.164958   
C189     C      0.344320000000     0.563300000000     0.933120000000    -0.015009   
C190     C      0.326710000000     0.561090000000     0.002570000000    -0.0644108  
C191     C      0.311560000000     0.524210000000     0.427230000000    -0.00822159 
C192     C      0.292970000000     0.523480000000     0.494890000000     0.168054   
H1       H      0.294450000000     0.050050000000     0.202150000000     0.0398939  
H2       H      0.241350000000     0.003570000000     0.167970000000     0.0526812  
H3       H      0.279760000000     0.050230000000     0.270350000000     0.00332473 
H4       H      0.216610000000     0.002060000000     0.286070000000     0.0629486  
H5       H      0.262390000000     0.085150000000     0.170800000000     0.0502882  
H6       H      0.196020000000     0.039140000000     0.181650000000     0.0478064  
H7       H      0.179180000000     0.037620000000     0.259760000000     0.0647731  
H8       H      0.243820000000     0.075230000000     0.318720000000     0.140738   
H9       H      0.031910000000     0.833130000000     0.250930000000     0.042516   
H10      H      0.986040000000     0.774510000000     0.222930000000     0.051963   
H11      H      0.030850000000     0.908340000000     0.201650000000     0.00582575 
H12      H      0.985050000000     0.888370000000     0.147200000000     0.0651686  
H13      H      0.066960000000     0.787680000000     0.236220000000     0.0518313  
H14      H      0.020480000000     0.773000000000     0.182010000000     0.0451341  
H15      H      0.019990000000     0.840720000000     0.137250000000     0.06459    
H16      H      0.057880000000     0.936340000000     0.150390000000     0.143518   
H17      H      0.889660000000     0.027740000000     0.232580000000     0.0466495  
H18      H      0.869910000000     0.066460000000     0.290480000000     0.0508412  
H19      H      0.815060000000     0.031620000000     0.182980000000     0.00958629 
H20      H      0.758830000000     0.076500000000     0.214680000000     0.0653709  
H21      H      0.883680000000     0.987270000000     0.269920000000     0.049928   
H22      H      0.822740000000     0.029830000000     0.296800000000     0.0420844  
H23      H      0.757000000000     0.037030000000     0.253200000000     0.0626053  
H24      H      0.749170000000     0.004700000000     0.172400000000     0.145308   
H25      H      0.022670000000     0.239080000000     0.260450000000     0.0434799  
H26      H      0.066300000000     0.291670000000     0.222530000000     0.0512847  
H27      H      0.024500000000     0.155030000000     0.228290000000     0.00573346 
H28      H      0.071610000000     0.159530000000     0.172940000000     0.0640104  
H29      H      0.986750000000     0.279820000000     0.238220000000     0.051478   
H30      H      0.032070000000     0.280840000000     0.182080000000     0.0438946  
H31      H      0.036100000000     0.201530000000     0.151700000000     0.0638508  
H32      H      0.999380000000     0.112270000000     0.183820000000     0.142782   
H33      H      0.814770000000     0.727770000000     0.338870000000     0.0418489  
H34      H      0.855840000000     0.797950000000     0.330660000000     0.0518094  
H35      H      0.733980000000     0.736260000000     0.307240000000     0.00663074 
H36      H      0.726850000000     0.811770000000     0.279550000000     0.0669528  
H37      H      0.822880000000     0.754030000000     0.383540000000     0.0498372  
H38      H      0.814980000000     0.829180000000     0.356210000000     0.0441631  
H39      H      0.734930000000     0.838090000000     0.324280000000     0.0650596  
H40      H      0.666780000000     0.761880000000     0.311830000000     0.144105   
H41      H      0.823410000000     0.811030000000     0.059680000000     0.0414899  
H42      H      0.752130000000     0.826290000000     0.029650000000     0.0509026  
H43      H      0.821360000000     0.729760000000     0.093570000000     0.00484734 
H44      H      0.748600000000     0.695470000000     0.083040000000     0.0652253  
H45      H      0.796400000000     0.856790000000     0.083090000000     0.0527109  
H46      H      0.723830000000     0.822450000000     0.073700000000     0.0448702  
H47      H      0.721240000000     0.740970000000     0.106640000000     0.0640671  
H48      H      0.800460000000     0.689870000000     0.141590000000     0.14274    
H49      H      0.805030000000     0.238280000000     0.387450000000     0.0432364  
H50      H      0.855570000000     0.277780000000     0.345300000000     0.0521188  
H51      H      0.726220000000     0.230540000000     0.355430000000     0.00567464 
H52      H      0.727110000000     0.265400000000     0.292850000000     0.0644165  
H53      H      0.819730000000     0.292150000000     0.406820000000     0.0523476  
H54      H      0.820720000000     0.327180000000     0.344770000000     0.0450784  
H55      H      0.741280000000     0.319550000000     0.312200000000     0.0643184  
H56      H      0.662920000000     0.261380000000     0.340840000000     0.143059   
H57      H      0.736250000000     0.312970000000     0.126990000000     0.040942   
H58      H      0.812600000000     0.327800000000     0.147000000000     0.050683   
H59      H      0.730960000000     0.230140000000     0.100330000000     0.00262625 
H60      H      0.803360000000     0.193260000000     0.102030000000     0.0728428  
H61      H      0.760070000000     0.356130000000     0.097780000000     0.0521659  
H62      H      0.832510000000     0.319150000000     0.100250000000     0.0453149  
H63      H      0.826700000000     0.236740000000     0.072680000000     0.0670958  
H64      H      0.717910000000     0.205280000000     0.045440000000     0.153754   
H65      H      0.662520000000     0.516630000000     0.949690000000     0.0448125  
H66      H      0.678340000000     0.564200000000     0.395440000000     0.0510915  
H67      H      0.742000000000     0.517820000000     0.998470000000     0.00755658 
H68      H      0.792010000000     0.570810000000     0.968540000000     0.0641799  
H69      H      0.670640000000     0.481600000000     0.409530000000     0.0504908  
H70      H      0.727050000000     0.531580000000     0.384900000000     0.0426485  
H71      H      0.794490000000     0.537400000000     0.426780000000     0.0628975  
H72      H      0.809560000000     0.492640000000     0.002110000000     0.14609    
H73      H      0.266160000000     0.845660000000     0.381380000000     0.0408365  
H74      H      0.201360000000     0.816250000000     0.348240000000     0.0511264  
H75      H      0.338630000000     0.828730000000     0.343680000000     0.00455793 
H76      H      0.319790000000     0.788730000000     0.285850000000     0.0652775  
H77      H      0.241960000000     0.800320000000     0.407980000000     0.0502434  
H78      H      0.222740000000     0.759460000000     0.350990000000     0.0442668  
H79      H      0.296470000000     0.742310000000     0.311850000000     0.0645422  
H80      H      0.389890000000     0.780830000000     0.328170000000     0.14292    
H81      H      0.331990000000     0.785550000000     0.128000000000     0.0425195  
H82      H      0.342320000000     0.831490000000     0.071350000000     0.0510787  
H83      H      0.265890000000     0.730160000000     0.119340000000     0.00636052 
H84      H      0.232570000000     0.739620000000     0.056560000000     0.0669535  
H85      H      0.320390000000     0.843880000000     0.137610000000     0.0520609  
H86      H      0.287210000000     0.854370000000     0.075270000000     0.0455372  
H87      H      0.219700000000     0.797810000000     0.066060000000     0.0654083  
H88      H      0.194670000000     0.718180000000     0.119050000000     0.142493   
H89      H      0.529150000000     0.793490000000     0.002840000000     0.0414775  
H90      H      0.568210000000     0.782350000000     0.444290000000     0.0544144  
H91      H      0.531130000000     0.722940000000     0.041110000000     0.00409881 
H92      H      0.567380000000     0.659340000000     0.509370000000     0.0649995  
H93      H      0.490290000000     0.799340000000     0.964700000000     0.051938   
H94      H      0.528360000000     0.741070000000     0.429090000000     0.0485869  
H95      H      0.526950000000     0.661500000000     0.472080000000     0.0656885  
H96      H      0.503610000000     0.657320000000     0.056790000000     0.141785   
H97      H      0.333230000000     0.275830000000     0.328520000000     0.0424215  
H98      H      0.298990000000     0.324390000000     0.280390000000     0.0515411  
H99      H      0.271920000000     0.235300000000     0.367370000000     0.00773827 
H100     H      0.197430000000     0.257940000000     0.344990000000     0.0677457  
H101     H      0.345000000000     0.334210000000     0.338130000000     0.0515563  
H102     H      0.271250000000     0.356860000000     0.315590000000     0.0443317  
H103     H      0.209300000000     0.316300000000     0.355050000000     0.0637929  
H104     H      0.223600000000     0.237330000000     0.412190000000     0.14343    
H105     H      0.229160000000     0.269490000000     0.059310000000     0.0435058  
H106     H      0.203740000000     0.316550000000     0.111070000000     0.0517644  
H107     H      0.304360000000     0.231330000000     0.075880000000     0.00634321 
H108     H      0.328140000000     0.252430000000     0.139380000000     0.0666403  
H109     H      0.228950000000     0.328050000000     0.045520000000     0.0555791  
H110     H      0.252990000000     0.350800000000     0.108330000000     0.0480901  
H111     H      0.329830000000     0.311280000000     0.126240000000     0.0666065  
H112     H      0.376180000000     0.235860000000     0.081160000000     0.142421   
H113     H      0.520880000000     0.335480000000     0.432950000000     0.0440413  
H114     H      0.560830000000     0.275330000000     0.466560000000     0.0532991  
H115     H      0.524210000000     0.412830000000     0.474240000000     0.00614708 
H116     H      0.567480000000     0.397270000000     0.031490000000     0.0649343  
H117     H      0.482560000000     0.292970000000     0.448540000000     0.0523985  
H118     H      0.524860000000     0.280900000000     0.006260000000     0.04666    
H119     H      0.529280000000     0.353580000000     0.045310000000     0.0651579  
H120     H      0.498440000000     0.449490000000     0.021800000000     0.143745   
H121     H      0.278570000000     0.538920000000     0.919990000000     0.0399022  
H122     H      0.342980000000     0.586100000000     0.408210000000     0.0512387  
H123     H      0.260590000000     0.539870000000     0.987630000000     0.00416159 
H124     H      0.314250000000     0.582460000000     0.525750000000     0.0679837  
H125     H      0.322500000000     0.503580000000     0.403080000000     0.0498997  
H126     H      0.378420000000     0.548970000000     0.434970000000     0.0470219  
H127     H      0.358470000000     0.545390000000     0.512070000000     0.0707181  
H128     H      0.268090000000     0.512750000000     0.044230000000     0.141716   
H129     H      0.294450000000     0.050050000000     0.702150000000     0.0398652  
H130     H      0.241350000000     0.003570000000     0.667970000000     0.0526404  
H131     H      0.279760000000     0.050230000000     0.770350000000     0.00330087 
H132     H      0.216610000000     0.002060000000     0.786070000000     0.0629155  
H133     H      0.262390000000     0.085150000000     0.670800000000     0.0502487  
H134     H      0.196020000000     0.039140000000     0.681650000000     0.0477768  
H135     H      0.179180000000     0.037620000000     0.759760000000     0.0647507  
H136     H      0.243820000000     0.075230000000     0.818720000000     0.140686   
H137     H      0.031910000000     0.833130000000     0.750930000000     0.0424779  
H138     H      0.986040000000     0.774510000000     0.722930000000     0.0519398  
H139     H      0.030850000000     0.908340000000     0.701650000000     0.00581017 
H140     H      0.985050000000     0.888370000000     0.647200000000     0.0651207  
H141     H      0.066960000000     0.787680000000     0.736220000000     0.0517991  
H142     H      0.020480000000     0.773000000000     0.682010000000     0.0451017  
H143     H      0.019990000000     0.840720000000     0.637250000000     0.0645316  
H144     H      0.057880000000     0.936340000000     0.650390000000     0.143483   
H145     H      0.889660000000     0.027740000000     0.732580000000     0.0466373  
H146     H      0.869910000000     0.066460000000     0.790480000000     0.0508021  
H147     H      0.815050000000     0.031620000000     0.682980000000     0.00956534 
H148     H      0.758830000000     0.076500000000     0.714680000000     0.0653401  
H149     H      0.883680000000     0.987270000000     0.769910000000     0.0499143  
H150     H      0.822740000000     0.029830000000     0.796800000000     0.0420404  
H151     H      0.757000000000     0.037030000000     0.753200000000     0.0625714  
H152     H      0.749170000000     0.004700000000     0.672400000000     0.145205   
H153     H      0.022670000000     0.239080000000     0.760450000000     0.04346    
H154     H      0.066300000000     0.291670000000     0.722530000000     0.051231   
H155     H      0.024500000000     0.155030000000     0.728290000000     0.00571787 
H156     H      0.071610000000     0.159530000000     0.672940000000     0.0639763  
H157     H      0.986750000000     0.279820000000     0.738220000000     0.051461   
H158     H      0.032070000000     0.280840000000     0.682080000000     0.0438284  
H159     H      0.036100000000     0.201530000000     0.651700000000     0.0637961  
H160     H      0.999380000000     0.112270000000     0.683820000000     0.142755   
H161     H      0.814770000000     0.727770000000     0.838870000000     0.0418259  
H162     H      0.855840000000     0.797950000000     0.830660000000     0.0517685  
H163     H      0.733980000000     0.736260000000     0.807240000000     0.00662209 
H164     H      0.726860000000     0.811760000000     0.779550000000     0.0669575  
H165     H      0.822880000000     0.754030000000     0.883540000000     0.0497649  
H166     H      0.814980000000     0.829180000000     0.856210000000     0.0441004  
H167     H      0.734930000000     0.838090000000     0.824280000000     0.065034   
H168     H      0.666780000000     0.761880000000     0.811830000000     0.144095   
H169     H      0.823420000000     0.811030000000     0.559680000000     0.0413601  
H170     H      0.752120000000     0.826290000000     0.529650000000     0.0506983  
H171     H      0.821360000000     0.729760000000     0.593570000000     0.00477559 
H172     H      0.748600000000     0.695470000000     0.583050000000     0.0651465  
H173     H      0.796400000000     0.856790000000     0.583090000000     0.0526298  
H174     H      0.723830000000     0.822450000000     0.573700000000     0.0448009  
H175     H      0.721230000000     0.740970000000     0.606640000000     0.0640079  
H176     H      0.800460000000     0.689870000000     0.641590000000     0.142693   
H177     H      0.805030000000     0.238280000000     0.887450000000     0.0431547  
H178     H      0.855580000000     0.277780000000     0.845300000000     0.0520633  
H179     H      0.726220000000     0.230540000000     0.855430000000     0.00562952 
H180     H      0.727110000000     0.265400000000     0.792850000000     0.0644036  
H181     H      0.819730000000     0.292150000000     0.906820000000     0.052256   
H182     H      0.820720000000     0.327180000000     0.844770000000     0.0450471  
H183     H      0.741280000000     0.319550000000     0.812200000000     0.064311   
H184     H      0.662920000000     0.261380000000     0.840840000000     0.143031   
H185     H      0.736250000000     0.312970000000     0.626990000000     0.040919   
H186     H      0.812600000000     0.327800000000     0.647000000000     0.0506499  
H187     H      0.730960000000     0.230140000000     0.600330000000     0.00258282 
H188     H      0.803360000000     0.193260000000     0.602030000000     0.0727879  
H189     H      0.760070000000     0.356130000000     0.597780000000     0.0521007  
H190     H      0.832510000000     0.319150000000     0.600250000000     0.0452301  
H191     H      0.826700000000     0.236740000000     0.572680000000     0.0669962  
H192     H      0.717910000000     0.205280000000     0.545440000000     0.15365    
H193     H      0.662520000000     0.516630000000     0.449690000000     0.0449269  
H194     H      0.678340000000     0.564200000000     0.895440000000     0.0511025  
H195     H      0.742000000000     0.517820000000     0.498470000000     0.00780718 
H196     H      0.792010000000     0.570810000000     0.468540000000     0.0643335  
H197     H      0.670640000000     0.481600000000     0.909540000000     0.0504581  
H198     H      0.727050000000     0.531580000000     0.884900000000     0.0426716  
H199     H      0.794490000000     0.537400000000     0.926780000000     0.062862   
H200     H      0.809560000000     0.492640000000     0.502110000000     0.145334   
H201     H      0.266160000000     0.845660000000     0.881380000000     0.040764   
H202     H      0.201360000000     0.816250000000     0.848240000000     0.0510753  
H203     H      0.338630000000     0.828730000000     0.843680000000     0.00452679 
H204     H      0.319790000000     0.788730000000     0.785850000000     0.0652682  
H205     H      0.241960000000     0.800320000000     0.907980000000     0.0501331  
H206     H      0.222740000000     0.759460000000     0.850990000000     0.0442278  
H207     H      0.296470000000     0.742310000000     0.811850000000     0.0645325  
H208     H      0.389890000000     0.780830000000     0.828170000000     0.142902   
H209     H      0.331990000000     0.785550000000     0.628000000000     0.0425     
H210     H      0.342310000000     0.831490000000     0.571350000000     0.0509861  
H211     H      0.265890000000     0.730160000000     0.619340000000     0.00634531 
H212     H      0.232570000000     0.739620000000     0.556560000000     0.0668594  
H213     H      0.320390000000     0.843880000000     0.637610000000     0.0520377  
H214     H      0.287210000000     0.854370000000     0.575270000000     0.04544    
H215     H      0.219700000000     0.797810000000     0.566060000000     0.0653105  
H216     H      0.194670000000     0.718170000000     0.619060000000     0.142386   
H217     H      0.529150000000     0.793490000000     0.502840000000     0.0407218  
H218     H      0.568210000000     0.782350000000     0.944290000000     0.0542672  
H219     H      0.531130000000     0.722940000000     0.541110000000     0.00422756 
H220     H      0.567370000000     0.659340000000     0.009370000000     0.0659339  
H221     H      0.490290000000     0.799340000000     0.464700000000     0.0518557  
H222     H      0.528360000000     0.741070000000     0.929090000000     0.0485574  
H223     H      0.526950000000     0.661500000000     0.972090000000     0.0659226  
H224     H      0.503610000000     0.657320000000     0.556790000000     0.141669   
H225     H      0.333230000000     0.275830000000     0.828520000000     0.042403   
H226     H      0.298990000000     0.324390000000     0.780390000000     0.0515295  
H227     H      0.271920000000     0.235300000000     0.867370000000     0.0076945  
H228     H      0.197430000000     0.257940000000     0.844990000000     0.0677048  
H229     H      0.345000000000     0.334200000000     0.838130000000     0.0515491  
H230     H      0.271250000000     0.356860000000     0.815590000000     0.0443138  
H231     H      0.209300000000     0.316300000000     0.855050000000     0.0637462  
H232     H      0.223600000000     0.237330000000     0.912190000000     0.14333    
H233     H      0.229160000000     0.269490000000     0.559310000000     0.0433968  
H234     H      0.203740000000     0.316550000000     0.611070000000     0.0517168  
H235     H      0.304360000000     0.231330000000     0.575870000000     0.00627187 
H236     H      0.328140000000     0.252430000000     0.639380000000     0.0666131  
H237     H      0.228950000000     0.328050000000     0.545520000000     0.0554539  
H238     H      0.252990000000     0.350800000000     0.608330000000     0.0480484  
H239     H      0.329830000000     0.311280000000     0.626250000000     0.066569   
H240     H      0.376180000000     0.235860000000     0.581160000000     0.142349   
H241     H      0.520880000000     0.335480000000     0.932950000000     0.0440006  
H242     H      0.560830000000     0.275330000000     0.966560000000     0.053396   
H243     H      0.524210000000     0.412830000000     0.974240000000     0.00629905 
H244     H      0.567480000000     0.397270000000     0.531490000000     0.0650608  
H245     H      0.482550000000     0.292970000000     0.948540000000     0.0522454  
H246     H      0.524860000000     0.280900000000     0.506270000000     0.0458927  
H247     H      0.529280000000     0.353580000000     0.545310000000     0.0652994  
H248     H      0.498440000000     0.449490000000     0.521800000000     0.143697   
H249     H      0.278570000000     0.538920000000     0.419990000000     0.0399449  
H250     H      0.342980000000     0.586100000000     0.908210000000     0.0512493  
H251     H      0.260590000000     0.539870000000     0.487630000000     0.00408287 
H252     H      0.314250000000     0.582460000000     0.025750000000     0.0678114  
H253     H      0.322500000000     0.503580000000     0.903080000000     0.0498864  
H254     H      0.378420000000     0.548970000000     0.934970000000     0.0469385  
H255     H      0.358470000000     0.545380000000     0.012070000000     0.0706496  
H256     H      0.268090000000     0.512750000000     0.544230000000     0.141737   
In1      In     0.346290000000     0.365190000000     0.466600000000     2.41566    
In2      In     0.353150000000     0.723920000000     0.475190000000     2.40802    
In3      In     0.700280000000     0.347200000000     0.476680000000     2.41455    
In4      In     0.703530000000     0.702690000000     0.456410000000     2.40671    
In5      In     0.849500000000     0.206050000000     0.227840000000     2.40881    
In6      In     0.850400000000     0.853340000000     0.206530000000     2.41254    
In7      In     0.203800000000     0.862880000000     0.221280000000     2.40812    
In8      In     0.206430000000     0.221500000000     0.217200000000     2.40982    
In9      In     0.346290000000     0.365190000000     0.966600000000     2.41445    
In10     In     0.353150000000     0.723920000000     0.975190000000     2.40551    
In11     In     0.700280000000     0.347200000000     0.976680000000     2.41279    
In12     In     0.703530000000     0.702690000000     0.956410000000     2.40624    
In13     In     0.849500000000     0.206050000000     0.727840000000     2.40873    
In14     In     0.850400000000     0.853340000000     0.706530000000     2.41253    
In15     In     0.203800000000     0.862880000000     0.721280000000     2.40803    
In16     In     0.206430000000     0.221500000000     0.717200000000     2.4098     
N1       N      0.246840000000     0.090380000000     0.229630000000    -0.182319   
N2       N      0.222180000000     0.999240000000     0.226030000000    -0.159699   
N3       N      0.070470000000     0.849400000000     0.203450000000    -0.180637   
N4       N      0.981250000000     0.831990000000     0.185650000000    -0.15969    
N5       N      0.831770000000     0.987500000000     0.227650000000    -0.180358   
N6       N      0.815590000000     0.075950000000     0.251630000000    -0.159655   
N7       N      0.984020000000     0.211720000000     0.216380000000    -0.180684   
N8       N      0.073250000000     0.225840000000     0.197550000000    -0.160709   
N9       N      0.756140000000     0.756110000000     0.360850000000    -0.180649   
N10      N      0.792990000000     0.808660000000     0.302710000000    -0.158945   
N11      N      0.799170000000     0.792950000000     0.113160000000    -0.180653   
N12      N      0.746530000000     0.759520000000     0.053850000000    -0.160148   
N13      N      0.752780000000     0.286060000000     0.384940000000    -0.180511   
N14      N      0.793350000000     0.271910000000     0.315400000000    -0.160081   
N15      N      0.750970000000     0.290350000000     0.072410000000    -0.184289   
N16      N      0.811180000000     0.259060000000     0.127020000000    -0.160386   
N17      N      0.722850000000     0.479920000000     0.451250000000    -0.180013   
N18      N      0.733860000000     0.571730000000     0.933250000000    -0.159965   
N19      N      0.304280000000     0.785520000000     0.380790000000    -0.181694   
N20      N      0.257770000000     0.801750000000     0.313550000000    -0.159908   
N21      N      0.263490000000     0.799060000000     0.134470000000    -0.180837   
N22      N      0.288290000000     0.785370000000     0.060150000000    -0.15923    
N23      N      0.485440000000     0.737780000000     0.997550000000    -0.182188   
N24      N      0.570750000000     0.717410000000     0.472450000000    -0.158691   
N25      N      0.297140000000     0.301440000000     0.374350000000    -0.18172    
N26      N      0.245740000000     0.290640000000     0.309640000000    -0.159789   
N27      N      0.293560000000     0.297740000000     0.055530000000    -0.179531   
N28      N      0.264900000000     0.284700000000     0.129090000000    -0.159032   
N29      N      0.480910000000     0.356820000000     0.477980000000    -0.181004   
N30      N      0.568470000000     0.336190000000     0.998910000000    -0.160044   
N31      N      0.307860000000     0.497590000000     0.962080000000    -0.18221    
N32      N      0.335060000000     0.587710000000     0.468160000000    -0.158751   
N33      N      0.246840000000     0.090380000000     0.729630000000    -0.182326   
N34      N      0.222180000000     0.999240000000     0.726030000000    -0.159706   
N35      N      0.070470000000     0.849390000000     0.703450000000    -0.18064    
N36      N      0.981250000000     0.831990000000     0.685650000000    -0.159698   
N37      N      0.831770000000     0.987500000000     0.727650000000    -0.18035    
N38      N      0.815590000000     0.075940000000     0.751630000000    -0.159583   
N39      N      0.984020000000     0.211720000000     0.716380000000    -0.180687   
N40      N      0.073250000000     0.225840000000     0.697550000000    -0.160736   
N41      N      0.756140000000     0.756110000000     0.860850000000    -0.180662   
N42      N      0.792990000000     0.808660000000     0.802710000000    -0.158949   
N43      N      0.799170000000     0.792950000000     0.613160000000    -0.180695   
N44      N      0.746530000000     0.759520000000     0.553850000000    -0.160072   
N45      N      0.752780000000     0.286060000000     0.884940000000    -0.180528   
N46      N      0.793350000000     0.271910000000     0.815400000000    -0.160091   
N47      N      0.750970000000     0.290350000000     0.572400000000    -0.184466   
N48      N      0.811180000000     0.259060000000     0.627020000000    -0.160401   
N49      N      0.722850000000     0.479920000000     0.951250000000    -0.180079   
N50      N      0.733860000000     0.571730000000     0.433250000000    -0.159975   
N51      N      0.304280000000     0.785520000000     0.880790000000    -0.181692   
N52      N      0.257770000000     0.801750000000     0.813550000000    -0.159915   
N53      N      0.263490000000     0.799060000000     0.634470000000    -0.180811   
N54      N      0.288290000000     0.785380000000     0.560150000000    -0.159309   
N55      N      0.485440000000     0.737780000000     0.497550000000    -0.18197    
N56      N      0.570750000000     0.717410000000     0.972450000000    -0.158587   
N57      N      0.297140000000     0.301440000000     0.874350000000    -0.181737   
N58      N      0.245740000000     0.290640000000     0.809640000000    -0.159796   
N59      N      0.293560000000     0.297740000000     0.555530000000    -0.179599   
N60      N      0.264900000000     0.284700000000     0.629090000000    -0.159042   
N61      N      0.480900000000     0.356820000000     0.977980000000    -0.181013   
N62      N      0.568470000000     0.336190000000     0.498900000000    -0.159845   
N63      N      0.307860000000     0.497590000000     0.462080000000    -0.182301   
N64      N      0.335060000000     0.587710000000     0.968160000000    -0.159091   
O1       O      0.289370000000     0.347600000000     0.005570000000    -0.486048   
O2       O      0.351670000000     0.316240000000     0.016150000000    -0.480257   
O3       O      0.346280000000     0.349610000000     0.403980000000    -0.497495   
O4       O      0.333070000000     0.431750000000     0.435040000000    -0.505307   
O5       O      0.412900000000     0.330440000000     0.957320000000    -0.501935   
O6       O      0.322080000000     0.430340000000     0.993520000000    -0.478867   
O7       O      0.297630000000     0.317750000000     0.437550000000    -0.48468    
O8       O      0.413220000000     0.392230000000     0.487070000000    -0.48711    
O9       O      0.298550000000     0.759870000000     0.441750000000    -0.508992   
O10      O      0.359240000000     0.747370000000     0.414180000000    -0.475504   
O11      O      0.294110000000     0.731700000000     0.014000000000    -0.489878   
O12      O      0.350400000000     0.657730000000     0.942050000000    -0.498795   
O13      O      0.419330000000     0.761750000000     0.470750000000    -0.494453   
O14      O      0.335870000000     0.655100000000     0.500120000000    -0.49292    
O15      O      0.348010000000     0.777520000000     0.020680000000    -0.502027   
O16      O      0.418060000000     0.700770000000     0.002360000000    -0.486577   
O17      O      0.730020000000     0.351420000000     0.035580000000    -0.497307   
O18      O      0.721820000000     0.286260000000     0.012270000000    -0.49424    
O19      O      0.694100000000     0.313490000000     0.419620000000    -0.476602   
O20      O      0.633350000000     0.311090000000     0.472250000000    -0.491013   
O21      O      0.740430000000     0.412600000000     0.981590000000    -0.477818   
O22      O      0.636460000000     0.371360000000     0.004190000000    -0.5032     
O23      O      0.758740000000     0.320750000000     0.442610000000    -0.502647   
O24      O      0.684570000000     0.412640000000     0.445050000000    -0.506699   
O25      O      0.725460000000     0.698660000000     0.017750000000    -0.498572   
O26      O      0.726990000000     0.763190000000     0.991200000000    -0.502397   
O27      O      0.697450000000     0.732160000000     0.397470000000    -0.477319   
O28      O      0.747530000000     0.639790000000     0.462430000000    -0.495067   
O29      O      0.638210000000     0.741290000000     0.949350000000    -0.488468   
O30      O      0.689650000000     0.635120000000     0.928260000000    -0.501275   
O31      O      0.761840000000     0.729150000000     0.421730000000    -0.503956   
O32      O      0.637090000000     0.679300000000     0.479930000000    -0.500139   
O33      O      0.832460000000     0.265630000000     0.188940000000    -0.503701   
O34      O      0.828260000000     0.199420000000     0.166560000000    -0.494781   
O35      O      0.789870000000     0.236070000000     0.258250000000    -0.504343   
O36      O      0.859020000000     0.139410000000     0.259480000000    -0.500389   
O37      O      0.916390000000     0.241950000000     0.233330000000    -0.498092   
O38      O      0.804220000000     0.144490000000     0.221750000000    -0.493303   
O39      O      0.853030000000     0.240840000000     0.284740000000    -0.496292   
O40      O      0.915860000000     0.176270000000     0.209940000000    -0.482716   
O41      O      0.825290000000     0.791490000000     0.174450000000    -0.486019   
O42      O      0.822540000000     0.855180000000     0.146820000000    -0.496112   
O43      O      0.853770000000     0.825190000000     0.266200000000    -0.493436   
O44      O      0.915110000000     0.813580000000     0.214140000000    -0.492298   
O45      O      0.813640000000     0.920440000000     0.197860000000    -0.475564   
O46      O      0.915690000000     0.871300000000     0.178240000000    -0.505465   
O47      O      0.789950000000     0.833320000000     0.241240000000    -0.498752   
O48      O      0.868830000000     0.919550000000     0.235040000000    -0.508554   
O49      O      0.260370000000     0.827290000000     0.252490000000    -0.504986   
O50      O      0.201260000000     0.839890000000     0.282670000000    -0.492794   
O51      O      0.205930000000     0.808320000000     0.176410000000    -0.483282   
O52      O      0.138000000000     0.885290000000     0.195360000000    -0.489667   
O53      O      0.208030000000     0.929690000000     0.253500000000    -0.503734   
O54      O      0.137440000000     0.826210000000     0.229380000000    -0.493661   
O55      O      0.260320000000     0.853730000000     0.180140000000    -0.493737   
O56      O      0.220390000000     0.931200000000     0.195060000000    -0.493488   
O57      O      0.204670000000     0.268320000000     0.166200000000    -0.503511   
O58      O      0.266130000000     0.236820000000     0.180380000000    -0.489967   
O59      O      0.200260000000     0.240090000000     0.278890000000    -0.491212   
O60      O      0.141660000000     0.190930000000     0.195050000000    -0.506211   
O61      O      0.232130000000     0.154540000000     0.194430000000    -0.502325   
O62      O      0.138690000000     0.255760000000     0.220220000000    -0.499703   
O63      O      0.251330000000     0.271710000000     0.247450000000    -0.502916   
O64      O      0.220280000000     0.158150000000     0.252720000000    -0.483706   
O65      O      0.233340000000     0.091120000000     0.295680000000    -0.262014   
O66      O      0.071820000000     0.906390000000     0.155350000000    -0.261724   
O67      O      0.762570000000     0.988490000000     0.194190000000    -0.261643   
O68      O      0.984630000000     0.142300000000     0.182050000000    -0.262297   
O69      O      0.683560000000     0.769420000000     0.335010000000    -0.259233   
O70      O      0.791590000000     0.721900000000     0.145290000000    -0.262356   
O71      O      0.681250000000     0.283530000000     0.354910000000    -0.260101   
O72      O      0.749220000000     0.215820000000     0.045670000000    -0.268683   
O73      O      0.794740000000     0.479410000000     0.979790000000    -0.263986   
O74      O      0.369130000000     0.765960000000     0.345890000000    -0.260618   
O75      O      0.200590000000     0.750210000000     0.125710000000    -0.260807   
O76      O      0.485540000000     0.671020000000     0.036260000000    -0.261253   
O77      O      0.239400000000     0.266800000000     0.410810000000    -0.260315   
O78      O      0.364270000000     0.265190000000     0.071710000000    -0.259816   
O79      O      0.482280000000     0.420320000000     0.019450000000    -0.259438   
O80      O      0.287820000000     0.496110000000     0.026940000000    -0.258193   
O81      O      0.289370000000     0.347600000000     0.505570000000    -0.48664    
O82      O      0.351670000000     0.316240000000     0.516150000000    -0.480805   
O83      O      0.346280000000     0.349610000000     0.903980000000    -0.497405   
O84      O      0.333070000000     0.431750000000     0.935040000000    -0.50521    
O85      O      0.412900000000     0.330440000000     0.457320000000    -0.501899   
O86      O      0.322080000000     0.430340000000     0.493520000000    -0.478597   
O87      O      0.297630000000     0.317750000000     0.937550000000    -0.484805   
O88      O      0.413220000000     0.392230000000     0.987070000000    -0.487281   
O89      O      0.298550000000     0.759870000000     0.941750000000    -0.508985   
O90      O      0.359240000000     0.747370000000     0.914170000000    -0.475175   
O91      O      0.294110000000     0.731710000000     0.514000000000    -0.49056    
O92      O      0.350400000000     0.657730000000     0.442050000000    -0.49909    
O93      O      0.419330000000     0.761750000000     0.970750000000    -0.494183   
O94      O      0.335870000000     0.655100000000     0.000110000000    -0.492037   
O95      O      0.348010000000     0.777520000000     0.520680000000    -0.502679   
O96      O      0.418060000000     0.700770000000     0.502360000000    -0.487751   
O97      O      0.730020000000     0.351420000000     0.535580000000    -0.497835   
O98      O      0.721820000000     0.286260000000     0.512270000000    -0.494755   
O99      O      0.694100000000     0.313490000000     0.919620000000    -0.476492   
O100     O      0.633350000000     0.311090000000     0.972250000000    -0.490783   
O101     O      0.740430000000     0.412600000000     0.481590000000    -0.477704   
O102     O      0.636460000000     0.371360000000     0.504190000000    -0.504388   
O103     O      0.758740000000     0.320750000000     0.942610000000    -0.502651   
O104     O      0.684570000000     0.412640000000     0.945060000000    -0.506771   
O105     O      0.725470000000     0.698660000000     0.517750000000    -0.498844   
O106     O      0.726990000000     0.763190000000     0.491200000000    -0.501605   
O107     O      0.697450000000     0.732160000000     0.897470000000    -0.477286   
O108     O      0.747530000000     0.639800000000     0.962430000000    -0.495253   
O109     O      0.638210000000     0.741290000000     0.449350000000    -0.48845    
O110     O      0.689650000000     0.635120000000     0.428260000000    -0.501311   
O111     O      0.761840000000     0.729150000000     0.921730000000    -0.504002   
O112     O      0.637090000000     0.679300000000     0.979930000000    -0.500329   
O113     O      0.832460000000     0.265630000000     0.688940000000    -0.503702   
O114     O      0.828270000000     0.199420000000     0.666560000000    -0.494823   
O115     O      0.789870000000     0.236070000000     0.758250000000    -0.504349   
O116     O      0.859020000000     0.139410000000     0.759490000000    -0.500245   
O117     O      0.916390000000     0.241950000000     0.733330000000    -0.498101   
O118     O      0.804220000000     0.144490000000     0.721750000000    -0.493263   
O119     O      0.853030000000     0.240840000000     0.784740000000    -0.496308   
O120     O      0.915860000000     0.176270000000     0.709940000000    -0.482733   
O121     O      0.825290000000     0.791490000000     0.674450000000    -0.48607    
O122     O      0.822540000000     0.855180000000     0.646820000000    -0.496063   
O123     O      0.853770000000     0.825190000000     0.766200000000    -0.493452   
O124     O      0.915110000000     0.813580000000     0.714140000000    -0.492314   
O125     O      0.813640000000     0.920440000000     0.697860000000    -0.475582   
O126     O      0.915690000000     0.871300000000     0.678240000000    -0.505493   
O127     O      0.789950000000     0.833320000000     0.741240000000    -0.49876    
O128     O      0.868830000000     0.919550000000     0.735040000000    -0.508571   
O129     O      0.260370000000     0.827290000000     0.752490000000    -0.504987   
O130     O      0.201260000000     0.839890000000     0.782670000000    -0.492817   
O131     O      0.205930000000     0.808310000000     0.676410000000    -0.483149   
O132     O      0.138000000000     0.885290000000     0.695360000000    -0.489723   
O133     O      0.208030000000     0.929690000000     0.753500000000    -0.503749   
O134     O      0.137440000000     0.826210000000     0.729370000000    -0.49378    
O135     O      0.260320000000     0.853730000000     0.680140000000    -0.493722   
O136     O      0.220390000000     0.931200000000     0.695060000000    -0.493507   
O137     O      0.204670000000     0.268320000000     0.666200000000    -0.503535   
O138     O      0.266130000000     0.236820000000     0.680380000000    -0.48998    
O139     O      0.200260000000     0.240090000000     0.778890000000    -0.49123    
O140     O      0.141660000000     0.190930000000     0.695050000000    -0.506234   
O141     O      0.232130000000     0.154540000000     0.694430000000    -0.502349   
O142     O      0.138690000000     0.255760000000     0.720220000000    -0.49972    
O143     O      0.251330000000     0.271710000000     0.747450000000    -0.502923   
O144     O      0.220280000000     0.158150000000     0.752720000000    -0.483721   
O145     O      0.233340000000     0.091120000000     0.795680000000    -0.262034   
O146     O      0.071820000000     0.906390000000     0.655350000000    -0.261802   
O147     O      0.762570000000     0.988480000000     0.694190000000    -0.261563   
O148     O      0.984630000000     0.142300000000     0.682050000000    -0.262325   
O149     O      0.683560000000     0.769420000000     0.835010000000    -0.259256   
O150     O      0.791590000000     0.721900000000     0.645290000000    -0.262369   
O151     O      0.681250000000     0.283530000000     0.854910000000    -0.260119   
O152     O      0.749220000000     0.215820000000     0.545670000000    -0.268815   
O153     O      0.794740000000     0.479420000000     0.479790000000    -0.263294   
O154     O      0.369130000000     0.765960000000     0.845890000000    -0.260627   
O155     O      0.200590000000     0.750210000000     0.625710000000    -0.260762   
O156     O      0.485540000000     0.671020000000     0.536260000000    -0.26115    
O157     O      0.239400000000     0.266800000000     0.910810000000    -0.260426   
O158     O      0.364270000000     0.265190000000     0.571710000000    -0.259901   
O159     O      0.482280000000     0.420320000000     0.519450000000    -0.2603     
O160     O      0.287820000000     0.496110000000     0.526940000000    -0.259052   


