data_structure

_audit_creation_method RASPA-1.0
_audit_creation_date 2023-6-5
_audit_author_name 'Poobodin Mano'

_cell_length_a    30.779
_cell_length_b    28.5842
_cell_length_c    35.7159
_cell_angle_alpha 89.5531
_cell_angle_beta  90.447
_cell_angle_gamma 89.9991
_cell_volume      31420.7

_symmetry_cell_setting          triclinic
_symmetry_space_group_name_Hall 'P 1'
_symmetry_space_group_name_H-M  'P 1'
_symmetry_Int_Tables_number     1

_symmetry_equiv_pos_as_xyz 'x,y,z'

loop_
_atom_site_label
_atom_site_type_symbol
_atom_site_fract_x
_atom_site_fract_y
_atom_site_fract_z
_atom_site_charge
Br1      Br     0.289580000000     0.092420000000     0.206440000000    -0.19603    
Br2      Br     0.949540000000     0.789760000000     0.302860000000    -0.204286   
Br3      Br     0.928150000000     0.113440000000     0.152210000000    -0.210689   
Br4      Br     0.969050000000     0.360310000000     0.185970000000    -0.194323   
Br5      Br     0.658790000000     0.760680000000     0.331300000000    -0.197204   
Br6      Br     0.804010000000     0.730450000000     0.154070000000    -0.193789   
Br7      Br     0.716590000000     0.232180000000     0.390800000000    -0.207891   
Br8      Br     0.838000000000     0.378860000000     0.025830000000    -0.179747   
Br9      Br     0.792470000000     0.517620000000     0.464730000000    -0.18046    
Br10     Br     0.314860000000     0.689280000000     0.346280000000    -0.189717   
Br11     Br     0.172130000000     0.728140000000     0.135820000000    -0.194393   
Br12     Br     0.446010000000     0.812220000000     0.405510000000    -0.203572   
Br13     Br     0.300150000000     0.206210000000     0.402900000000    -0.199529   
Br14     Br     0.328530000000     0.300350000000     0.170850000000    -0.194991   
Br15     Br     0.470540000000     0.353860000000     0.365250000000    -0.200186   
Br16     Br     0.236900000000     0.588620000000     0.482450000000    -0.191363   
Br17     Br     0.289570000000     0.092420000000     0.706450000000    -0.196095   
Br18     Br     0.949540000000     0.789740000000     0.802850000000    -0.204384   
Br19     Br     0.928150000000     0.113430000000     0.652230000000    -0.210801   
Br20     Br     0.969040000000     0.360270000000     0.685900000000    -0.194369   
Br21     Br     0.658850000000     0.760570000000     0.831290000000    -0.197237   
Br22     Br     0.804030000000     0.730450000000     0.654050000000    -0.19385    
Br23     Br     0.716560000000     0.232160000000     0.890780000000    -0.208096   
Br24     Br     0.837960000000     0.379000000000     0.525890000000    -0.180189   
Br25     Br     0.792490000000     0.517570000000     0.964760000000    -0.18068    
Br26     Br     0.314930000000     0.689310000000     0.846260000000    -0.189707   
Br27     Br     0.172180000000     0.728080000000     0.635860000000    -0.194501   
Br28     Br     0.446030000000     0.812140000000     0.905470000000    -0.203649   
Br29     Br     0.300140000000     0.206210000000     0.902900000000    -0.199712   
Br30     Br     0.328520000000     0.300370000000     0.670860000000    -0.195037   
Br31     Br     0.470530000000     0.353920000000     0.865250000000    -0.200225   
Br32     Br     0.236890000000     0.588630000000     0.982430000000    -0.191618   
C1       C      0.346150000000     0.448770000000     0.972310000000     0.409131   
C2       C      0.315730000000     0.318450000000     0.400810000000     0.423847   
C3       C      0.435950000000     0.330310000000     0.449030000000     0.422022   
C4       C      0.314920000000     0.319220000000     0.025460000000     0.407549   
C5       C      0.332630000000     0.634350000000     0.494990000000     0.422304   
C6       C      0.289790000000     0.767380000000     0.037790000000     0.404976   
C7       C      0.420660000000     0.755220000000     0.979910000000     0.412041   
C8       C      0.304210000000     0.760080000000     0.416530000000     0.429602   
C9       C      0.604870000000     0.363100000000     0.957050000000     0.404453   
C10      C      0.723330000000     0.344060000000     0.398010000000     0.421881   
C11      C      0.698380000000     0.470760000000     0.480890000000     0.421985   
C12      C      0.739870000000     0.337530000000     0.015660000000     0.418653   
C13      C      0.681490000000     0.655420000000     0.968260000000     0.414242   
C14      C      0.712360000000     0.783870000000     0.406850000000     0.418848   
C15      C      0.592940000000     0.779070000000     0.475100000000     0.410624   
C16      C      0.718010000000     0.779750000000     0.032610000000     0.406773   
C17      C      0.840440000000     0.157600000000     0.188570000000     0.421046   
C18      C      0.801040000000     0.279230000000     0.269160000000     0.409708   
C19      C      0.929170000000     0.266310000000     0.221560000000     0.414471   
C20      C      0.804540000000     0.289180000000     0.148870000000     0.400526   
C21      C      0.922000000000     0.845660000000     0.227220000000     0.419561   
C22      C      0.791960000000     0.855940000000     0.280810000000     0.408327   
C23      C      0.843030000000     0.974550000000     0.213820000000     0.413985   
C24      C      0.805480000000     0.843880000000     0.157750000000     0.421382   
C25      C      0.094630000000     0.830320000000     0.231460000000     0.40651    
C26      C      0.219570000000     0.820220000000     0.170160000000     0.419712   
C27      C      0.182090000000     0.952070000000     0.222390000000     0.406949   
C28      C      0.214410000000     0.821410000000     0.292880000000     0.411515   
C29      C      0.104500000000     0.258970000000     0.226100000000     0.408922   
C30      C      0.222240000000     0.258370000000     0.278540000000     0.408802   
C31      C      0.192670000000     0.137320000000     0.197840000000     0.419981   
C32      C      0.228800000000     0.268860000000     0.153890000000     0.419795   
C33      C      0.145330000000     0.027300000000     0.208320000000    -0.0133018  
C34      C      0.224610000000     0.025200000000     0.227590000000    -0.0456782  
C35      C      0.156370000000     0.064310000000     0.178550000000    -0.010203   
C36      C      0.234310000000     0.060820000000     0.196520000000     0.114432   
C37      C      0.030310000000     0.799640000000     0.198000000000    -0.0121365  
C38      C      0.030650000000     0.802910000000     0.267090000000    -0.0430347  
C39      C      0.988720000000     0.827860000000     0.194710000000    -0.00478892 
C40      C      0.985070000000     0.825400000000     0.267400000000     0.113615   
C41      C      0.805210000000     0.050510000000     0.217730000000    -0.0119247  
C42      C      0.884380000000     0.046610000000     0.199150000000    -0.0449823  
C43      C      0.797280000000     0.085380000000     0.185770000000    -0.00891505 
C44      C      0.874720000000     0.081760000000     0.167500000000     0.114188   
C45      C      0.039570000000     0.258830000000     0.266530000000    -0.0111092  
C46      C      0.044110000000     0.314000000000     0.213000000000    -0.0421425  
C47      C      0.994880000000     0.241650000000     0.254210000000    -0.00780616 
C48      C      0.997980000000     0.301410000000     0.199570000000     0.112162   
C49      C      0.774270000000     0.866170000000     0.347600000000    -0.0101396  
C50      C      0.725170000000     0.820140000000     0.305970000000    -0.0422777  
C51      C      0.771080000000     0.828630000000     0.378010000000    -0.0106503  
C52      C      0.718830000000     0.782920000000     0.336800000000     0.112098   
C53      C      0.733840000000     0.843870000000     0.076440000000    -0.0114683  
C54      C      0.750060000000     0.760490000000     0.094330000000    -0.0435765  
C55      C      0.776510000000     0.858980000000     0.094640000000    -0.00988513 
C56      C      0.792190000000     0.776030000000     0.113950000000     0.112855   
C57      C      0.757600000000     0.340960000000     0.298880000000    -0.0112366  
C58      C      0.755290000000     0.258890000000     0.323060000000    -0.0424424  
C59      C      0.759420000000     0.359580000000     0.338690000000    -0.00970292 
C60      C      0.754260000000     0.276100000000     0.363670000000     0.112933   
C61      C      0.742060000000     0.291150000000     0.105090000000    -0.0127698  
C62      C      0.805070000000     0.346330000000     0.096410000000    -0.0463748  
C63      C      0.745940000000     0.276420000000     0.064210000000    -0.00956974 
C64      C      0.808170000000     0.330990000000     0.055490000000     0.113734   
C65      C      0.648000000000     0.578180000000     0.980450000000    -0.0128835  
C66      C      0.723260000000     0.584280000000     0.452880000000    -0.0448466  
C67      C      0.664890000000     0.540800000000     0.007930000000    -0.00944038 
C68      C      0.738920000000     0.547640000000     0.481330000000     0.114599   
C69      C      0.227890000000     0.826370000000     0.361030000000    -0.0119098  
C70      C      0.249490000000     0.754630000000     0.325480000000    -0.0452755  
C71      C      0.271810000000     0.825650000000     0.381210000000    -0.00958437 
C72      C      0.293310000000     0.753790000000     0.346220000000     0.115097   
C73      C      0.279740000000     0.830210000000     0.084330000000    -0.0122869  
C74      C      0.225160000000     0.765650000000     0.078470000000    -0.0452924  
C75      C      0.281280000000     0.822520000000     0.126770000000    -0.0110457  
C76      C      0.227040000000     0.757330000000     0.120900000000     0.113509   
C77      C      0.528770000000     0.798170000000     0.013340000000    -0.0105339  
C78      C      0.525760000000     0.808490000000     0.444590000000    -0.0428917  
C79      C      0.489130000000     0.766300000000     0.013120000000    -0.00772646 
C80      C      0.483860000000     0.779400000000     0.441540000000     0.112832   
C81      C      0.243140000000     0.322840000000     0.320650000000    -0.0100128  
C82      C      0.248740000000     0.239470000000     0.342470000000    -0.0423298  
C83      C      0.288020000000     0.332690000000     0.337130000000    -0.0106333  
C84      C      0.293200000000     0.249740000000     0.360580000000     0.112869   
C85      C      0.252460000000     0.279540000000     0.055170000000    -0.0125976  
C86      C      0.320780000000     0.294770000000     0.091920000000    -0.0445455  
C87      C      0.225540000000     0.295960000000     0.088380000000    -0.0105538  
C88      C      0.293590000000     0.310650000000     0.125420000000     0.112687   
C89      C      0.537990000000     0.332560000000     0.986300000000    -0.0141431  
C90      C      0.535640000000     0.371660000000     0.422100000000    -0.046059   
C91      C      0.504730000000     0.296670000000     0.972230000000    -0.00980998 
C92      C      0.503590000000     0.333890000000     0.409570000000     0.116137   
C93      C      0.381360000000     0.524280000000     0.987040000000    -0.0138171  
C94      C      0.302930000000     0.521240000000     0.465300000000    -0.0467808  
C95      C      0.368830000000     0.561530000000     0.015660000000    -0.00947134 
C96      C      0.291730000000     0.557370000000     0.495080000000     0.115764   
C97      C      0.346160000000     0.448770000000     0.472310000000     0.409059   
C98      C      0.315720000000     0.318450000000     0.900810000000     0.423873   
C99      C      0.435940000000     0.330320000000     0.949020000000     0.421857   
C100     C      0.314930000000     0.319210000000     0.525460000000     0.406843   
C101     C      0.332620000000     0.634350000000     0.995000000000     0.421244   
C102     C      0.289780000000     0.767370000000     0.537800000000     0.405111   
C103     C      0.420650000000     0.755240000000     0.479920000000     0.413035   
C104     C      0.304230000000     0.760100000000     0.916520000000     0.429556   
C105     C      0.604880000000     0.363110000000     0.457050000000     0.404983   
C106     C      0.723310000000     0.344030000000     0.898010000000     0.421659   
C107     C      0.698400000000     0.470720000000     0.980910000000     0.421926   
C108     C      0.739880000000     0.337570000000     0.515660000000     0.417676   
C109     C      0.681470000000     0.655450000000     0.468240000000     0.414338   
C110     C      0.712380000000     0.783820000000     0.906850000000     0.418841   
C111     C      0.592960000000     0.779030000000     0.975090000000     0.409496   
C112     C      0.718000000000     0.779770000000     0.532600000000     0.407271   
C113     C      0.840430000000     0.157590000000     0.688580000000     0.421122   
C114     C      0.801020000000     0.279210000000     0.769160000000     0.409801   
C115     C      0.929160000000     0.266300000000     0.721550000000     0.414525   
C116     C      0.804530000000     0.289180000000     0.648880000000     0.400546   
C117     C      0.922010000000     0.845650000000     0.727220000000     0.419633   
C118     C      0.791970000000     0.855910000000     0.780810000000     0.408372   
C119     C      0.843030000000     0.974540000000     0.713830000000     0.41387    
C120     C      0.805480000000     0.843880000000     0.657750000000     0.421089   
C121     C      0.094630000000     0.830310000000     0.731460000000     0.406148   
C122     C      0.219580000000     0.820210000000     0.670170000000     0.419665   
C123     C      0.182090000000     0.952060000000     0.722400000000     0.40695    
C124     C      0.214420000000     0.821410000000     0.792890000000     0.411676   
C125     C      0.104490000000     0.258970000000     0.726090000000     0.408853   
C126     C      0.222230000000     0.258360000000     0.778540000000     0.408782   
C127     C      0.192670000000     0.137310000000     0.697850000000     0.419918   
C128     C      0.228790000000     0.268860000000     0.653880000000     0.419931   
C129     C      0.145320000000     0.027300000000     0.708340000000    -0.013325   
C130     C      0.224610000000     0.025200000000     0.727590000000    -0.0456354  
C131     C      0.156360000000     0.064300000000     0.678560000000    -0.0102682  
C132     C      0.234310000000     0.060810000000     0.696530000000     0.114438   
C133     C      0.030320000000     0.799640000000     0.698000000000    -0.0120516  
C134     C      0.030650000000     0.802890000000     0.767090000000    -0.0430571  
C135     C      0.988720000000     0.827860000000     0.694710000000    -0.004809   
C136     C      0.985070000000     0.825380000000     0.767400000000     0.113672   
C137     C      0.805210000000     0.050490000000     0.717750000000    -0.0119648  
C138     C      0.884380000000     0.046590000000     0.699170000000    -0.0449807  
C139     C      0.797280000000     0.085370000000     0.685780000000    -0.0088539  
C140     C      0.874730000000     0.081750000000     0.667520000000     0.114197   
C141     C      0.039560000000     0.258860000000     0.766510000000    -0.0110489  
C142     C      0.044100000000     0.313990000000     0.712960000000    -0.0420842  
C143     C      0.994880000000     0.241670000000     0.754210000000    -0.00784027 
C144     C      0.997980000000     0.301380000000     0.699540000000     0.112108   
C145     C      0.774270000000     0.866140000000     0.847600000000    -0.0101518  
C146     C      0.725200000000     0.820080000000     0.805970000000    -0.0421985  
C147     C      0.771100000000     0.828600000000     0.878010000000    -0.010721   
C148     C      0.718870000000     0.782850000000     0.836810000000     0.112111   
C149     C      0.733830000000     0.843880000000     0.576450000000    -0.0113436  
C150     C      0.750070000000     0.760490000000     0.594320000000    -0.0436308  
C151     C      0.776500000000     0.859000000000     0.594640000000    -0.0100449  
C152     C      0.792190000000     0.776040000000     0.613940000000     0.112887   
C153     C      0.757580000000     0.340940000000     0.798880000000    -0.0112089  
C154     C      0.755270000000     0.258870000000     0.823050000000    -0.04236    
C155     C      0.759400000000     0.359560000000     0.838690000000    -0.00970653 
C156     C      0.754240000000     0.276070000000     0.863670000000     0.112898   
C157     C      0.742070000000     0.291120000000     0.605070000000    -0.0127646  
C158     C      0.805030000000     0.346370000000     0.596450000000    -0.0462744  
C159     C      0.745980000000     0.276440000000     0.564180000000    -0.00954167 
C160     C      0.808160000000     0.331070000000     0.555520000000     0.113634   
C161     C      0.647980000000     0.578210000000     0.480420000000    -0.0122113  
C162     C      0.723280000000     0.584240000000     0.952910000000    -0.0447262  
C163     C      0.664870000000     0.540830000000     0.507900000000    -0.0105442  
C164     C      0.738940000000     0.547610000000     0.981360000000     0.113892   
C165     C      0.227910000000     0.826380000000     0.861030000000    -0.0118771  
C166     C      0.249510000000     0.754630000000     0.825490000000    -0.0452932  
C167     C      0.271830000000     0.825660000000     0.881210000000    -0.00953498 
C168     C      0.293340000000     0.753820000000     0.846220000000     0.115083   
C169     C      0.279720000000     0.830210000000     0.584330000000    -0.0122675  
C170     C      0.225170000000     0.765620000000     0.578490000000    -0.0452883  
C171     C      0.281280000000     0.822530000000     0.626770000000    -0.0110244  
C172     C      0.227070000000     0.757310000000     0.620930000000     0.113511   
C173     C      0.528760000000     0.798190000000     0.513360000000    -0.0109488  
C174     C      0.525780000000     0.808440000000     0.944570000000    -0.042935   
C175     C      0.489120000000     0.766320000000     0.513130000000    -0.00803436 
C176     C      0.483870000000     0.779340000000     0.941530000000     0.112757   
C177     C      0.243130000000     0.322850000000     0.820650000000    -0.0100957  
C178     C      0.248730000000     0.239470000000     0.842460000000    -0.042245   
C179     C      0.288010000000     0.332690000000     0.837130000000    -0.0105662  
C180     C      0.293190000000     0.249740000000     0.860580000000     0.112819   
C181     C      0.252480000000     0.279520000000     0.555160000000    -0.0126307  
C182     C      0.320780000000     0.294780000000     0.591930000000    -0.0445266  
C183     C      0.225550000000     0.295940000000     0.588370000000    -0.0105258  
C184     C      0.293590000000     0.310660000000     0.625420000000     0.112679   
C185     C      0.538000000000     0.332580000000     0.486310000000    -0.012436   
C186     C      0.535630000000     0.371680000000     0.922110000000    -0.0460464  
C187     C      0.504740000000     0.296670000000     0.472250000000    -0.0102843  
C188     C      0.503570000000     0.333920000000     0.909560000000     0.116193   
C189     C      0.381370000000     0.524280000000     0.487010000000    -0.0132376  
C190     C      0.302920000000     0.521240000000     0.965300000000    -0.0466151  
C191     C      0.368850000000     0.561540000000     0.515640000000    -0.00996771 
C192     C      0.291720000000     0.557380000000     0.995080000000     0.114749   
H1       H      0.220220000000     0.044310000000     0.254290000000     0.0690121  
H2       H      0.133480000000     0.045620000000     0.233620000000     0.0484477  
H3       H      0.127610000000     0.087160000000     0.173720000000     0.0566927  
H4       H      0.252880000000     0.001300000000     0.231120000000     0.077705   
H5       H      0.240030000000     0.040360000000     0.170630000000     0.0337633  
H6       H      0.118380000000     0.005060000000     0.197670000000     0.054533   
H7       H      0.163150000000     0.045980000000     0.151860000000     0.0466523  
H8       H      0.027370000000     0.764240000000     0.269470000000     0.0725239  
H9       H      0.021580000000     0.761920000000     0.199780000000     0.0566285  
H10      H      0.968710000000     0.812980000000     0.171590000000     0.0589075  
H11      H      0.049260000000     0.814770000000     0.292090000000     0.0720085  
H12      H      0.988280000000     0.861250000000     0.278990000000     0.0365817  
H13      H      0.050030000000     0.805000000000     0.172370000000     0.0634154  
H14      H      0.997140000000     0.864300000000     0.186330000000     0.0514587  
H15      H      0.897000000000     0.066090000000     0.223770000000     0.0641358  
H16      H      0.810850000000     0.070480000000     0.243920000000     0.0494877  
H17      H      0.769380000000     0.108340000000     0.192740000000     0.056594   
H18      H      0.910130000000     0.021990000000     0.190040000000     0.0732822  
H19      H      0.864510000000     0.060980000000     0.142730000000     0.0335177  
H20      H      0.775510000000     0.028930000000     0.221630000000     0.0550738  
H21      H      0.788130000000     0.065400000000     0.160290000000     0.0464194  
H22      H      0.042280000000     0.344560000000     0.232040000000     0.0696299  
H23      H      0.035030000000     0.288510000000     0.286090000000     0.0482329  
H24      H      0.974840000000     0.236160000000     0.279670000000     0.0550105  
H25      H      0.063860000000     0.324760000000     0.188450000000     0.0753532  
H26      H      0.000740000000     0.280660000000     0.173480000000     0.0439051  
H27      H      0.056620000000     0.230350000000     0.282110000000     0.0540369  
H28      H      0.998740000000     0.206870000000     0.240880000000     0.0538233  
H29      H      0.698230000000     0.846000000000     0.307520000000     0.0681603  
H30      H      0.749130000000     0.893220000000     0.352920000000     0.048385   
H31      H      0.774060000000     0.846040000000     0.405650000000     0.0563692  
H32      H      0.722870000000     0.802980000000     0.278170000000     0.0776433  
H33      H      0.740480000000     0.752880000000     0.330560000000     0.0403074  
H34      H      0.806660000000     0.883240000000     0.349550000000     0.0579872  
H35      H      0.799350000000     0.804690000000     0.375330000000     0.0536954  
H36      H      0.723970000000     0.757650000000     0.115600000000     0.0688803  
H37      H      0.707330000000     0.848260000000     0.097090000000     0.0490247  
H38      H      0.772700000000     0.895520000000     0.104520000000     0.0543487  
H39      H      0.755040000000     0.725060000000     0.082410000000     0.0761637  
H40      H      0.818970000000     0.772380000000     0.093450000000     0.0362565  
H41      H      0.726820000000     0.867350000000     0.052160000000     0.0545228  
H42      H      0.802070000000     0.859240000000     0.072790000000     0.047279   
H43      H      0.721380000000     0.252840000000     0.313210000000     0.0683043  
H44      H      0.723070000000     0.340320000000     0.289470000000     0.0497735  
H45      H      0.742310000000     0.393850000000     0.338990000000     0.0603653  
H46      H      0.772430000000     0.224640000000     0.322440000000     0.0740329  
H47      H      0.787510000000     0.272460000000     0.375740000000     0.0377291  
H48      H      0.775540000000     0.365400000000     0.280190000000     0.0571569  
H49      H      0.794000000000     0.366260000000     0.346190000000     0.0533669  
H50      H      0.784500000000     0.378260000000     0.097600000000     0.0699498  
H51      H      0.717650000000     0.319740000000     0.106650000000     0.0487357  
H52      H      0.713570000000     0.265040000000     0.053700000000     0.0596443  
H53      H      0.837960000000     0.355370000000     0.107230000000     0.0856154  
H54      H      0.830250000000     0.300170000000     0.055180000000     0.0380858  
H55      H      0.729870000000     0.261120000000     0.121940000000     0.0563591  
H56      H      0.768130000000     0.245760000000     0.062960000000     0.0500495  
H57      H      0.714640000000     0.566210000000     0.426380000000     0.0700349  
H58      H      0.633240000000     0.560200000000     0.955960000000     0.0481705  
H59      H      0.637860000000     0.516750000000     0.015350000000     0.0538117  
H60      H      0.750050000000     0.609240000000     0.446820000000     0.0793359  
H61      H      0.748580000000     0.567090000000     0.506960000000     0.0390127  
H62      H      0.622040000000     0.598710000000     0.994250000000     0.0541199  
H63      H      0.675760000000     0.558520000000     0.033990000000     0.049231   
H64      H      0.226610000000     0.731100000000     0.340520000000     0.071739   
H65      H      0.203880000000     0.807690000000     0.378810000000     0.0515421  
H66      H      0.267800000000     0.841630000000     0.409240000000     0.0575099  
H67      H      0.253820000000     0.740610000000     0.296780000000     0.0787037  
H68      H      0.316560000000     0.774250000000     0.328900000000     0.0396777  
H69      H      0.216930000000     0.863250000000     0.357750000000     0.0561096  
H70      H      0.294670000000     0.848120000000     0.365150000000     0.0526523  
H71      H      0.198020000000     0.790250000000     0.072130000000     0.067996   
H72      H      0.255550000000     0.858130000000     0.078040000000     0.0483069  
H73      H      0.288740000000     0.856450000000     0.140380000000     0.0564737  
H74      H      0.218010000000     0.732100000000     0.064110000000     0.0816373  
H75      H      0.252620000000     0.730570000000     0.126290000000     0.0363637  
H76      H      0.312020000000     0.842670000000     0.074680000000     0.0564449  
H77      H      0.308600000000     0.798270000000     0.133330000000     0.0486535  
H78      H      0.516960000000     0.846020000000     0.447740000000     0.0683922  
H79      H      0.517470000000     0.834820000000     0.016970000000     0.0476262  
H80      H      0.469540000000     0.774140000000     0.038350000000     0.0556618  
H81      H      0.544470000000     0.805240000000     0.418230000000     0.0783252  
H82      H      0.492140000000     0.745020000000     0.429120000000     0.0409247  
H83      H      0.550030000000     0.789000000000     0.037610000000     0.0538019  
H84      H      0.500390000000     0.729470000000     0.015980000000     0.0493729  
H85      H      0.223260000000     0.243000000000     0.364180000000     0.0672829  
H86      H      0.218350000000     0.332300000000     0.341780000000     0.0500101  
H87      H      0.289510000000     0.370180000000     0.345060000000     0.0623737  
H88      H      0.248230000000     0.202660000000     0.332600000000     0.0787357  
H89      H      0.318490000000     0.240250000000     0.339910000000     0.0428027  
H90      H      0.237990000000     0.345590000000     0.295610000000     0.060003   
H91      H      0.312490000000     0.327170000000     0.314830000000     0.0592668  
H92      H      0.328880000000     0.257110000000     0.095820000000     0.0715555  
H93      H      0.255430000000     0.240810000000     0.056840000000     0.0529747  
H94      H      0.193820000000     0.277390000000     0.087750000000     0.0583013  
H95      H      0.351810000000     0.314690000000     0.091510000000     0.0764993  
H96      H      0.289550000000     0.349200000000     0.122730000000     0.0345593  
H97      H      0.234870000000     0.288470000000     0.028760000000     0.0584371  
H98      H      0.218760000000     0.333920000000     0.084530000000     0.049537   
H99      H      0.516980000000     0.403180000000     0.430410000000     0.0682113  
H100     H      0.520330000000     0.360140000000     0.001830000000     0.0501319  
H101     H      0.485040000000     0.283850000000     0.996170000000     0.0582703  
H102     H      0.556660000000     0.381580000000     0.398130000000     0.0763993  
H103     H      0.523460000000     0.303870000000     0.399840000000     0.0368832  
H104     H      0.560520000000     0.314910000000     0.006370000000     0.0584433  
H105     H      0.522710000000     0.266270000000     0.960770000000     0.0506662  
H106     H      0.308230000000     0.539820000000     0.438250000000     0.0744748  
H107     H      0.394240000000     0.542340000000     0.461740000000     0.0513329  
H108     H      0.397260000000     0.584630000000     0.020850000000     0.0539998  
H109     H      0.274980000000     0.497000000000     0.461560000000     0.0784893  
H110     H      0.284790000000     0.537360000000     0.521220000000     0.0343023  
H111     H      0.407920000000     0.502340000000     0.999060000000     0.0537551  
H112     H      0.360980000000     0.543520000000     0.042490000000     0.0469794  
H113     H      0.220220000000     0.044310000000     0.754300000000     0.0689769  
H114     H      0.133480000000     0.045610000000     0.733640000000     0.0484419  
H115     H      0.127600000000     0.087150000000     0.673740000000     0.0566869  
H116     H      0.252880000000     0.001290000000     0.731130000000     0.077672   
H117     H      0.240020000000     0.040360000000     0.670640000000     0.0337247  
H118     H      0.118370000000     0.005050000000     0.697690000000     0.0545165  
H119     H      0.163140000000     0.045970000000     0.651880000000     0.0466346  
H120     H      0.027370000000     0.764220000000     0.769460000000     0.0725173  
H121     H      0.021590000000     0.761910000000     0.699760000000     0.0565766  
H122     H      0.968720000000     0.812990000000     0.671580000000     0.0588724  
H123     H      0.049270000000     0.814750000000     0.792090000000     0.0719879  
H124     H      0.988290000000     0.861230000000     0.778990000000     0.0365448  
H125     H      0.050030000000     0.805010000000     0.672360000000     0.0633391  
H126     H      0.997150000000     0.864300000000     0.686340000000     0.0514304  
H127     H      0.897000000000     0.066080000000     0.723790000000     0.0641172  
H128     H      0.810850000000     0.070470000000     0.743930000000     0.0494917  
H129     H      0.769370000000     0.108320000000     0.692750000000     0.0565552  
H130     H      0.910130000000     0.021980000000     0.690060000000     0.0732571  
H131     H      0.864520000000     0.060960000000     0.642750000000     0.0334804  
H132     H      0.775510000000     0.028920000000     0.721640000000     0.0550629  
H133     H      0.788130000000     0.065380000000     0.660300000000     0.0463642  
H134     H      0.042270000000     0.344570000000     0.731990000000     0.0695971  
H135     H      0.035030000000     0.288550000000     0.786060000000     0.0481924  
H136     H      0.974840000000     0.236200000000     0.779670000000     0.0550004  
H137     H      0.063850000000     0.324730000000     0.688400000000     0.0753069  
H138     H      0.000740000000     0.280610000000     0.673460000000     0.0438857  
H139     H      0.056620000000     0.230390000000     0.782110000000     0.0539851  
H140     H      0.998740000000     0.206880000000     0.740890000000     0.0538086  
H141     H      0.698240000000     0.845920000000     0.807520000000     0.0681246  
H142     H      0.749120000000     0.893170000000     0.852920000000     0.0483529  
H143     H      0.774070000000     0.846000000000     0.905650000000     0.0563107  
H144     H      0.722900000000     0.802920000000     0.778170000000     0.0776282  
H145     H      0.740540000000     0.752830000000     0.830570000000     0.0402894  
H146     H      0.806650000000     0.883220000000     0.849550000000     0.0579532  
H147     H      0.799370000000     0.804670000000     0.875330000000     0.0536715  
H148     H      0.723980000000     0.757650000000     0.615600000000     0.0688705  
H149     H      0.707320000000     0.848270000000     0.597100000000     0.0489627  
H150     H      0.772690000000     0.895530000000     0.604530000000     0.0543488  
H151     H      0.755040000000     0.725070000000     0.582390000000     0.0761247  
H152     H      0.818970000000     0.772410000000     0.593440000000     0.0361876  
H153     H      0.726800000000     0.867370000000     0.552170000000     0.0543981  
H154     H      0.802050000000     0.859260000000     0.572790000000     0.0472379  
H155     H      0.721360000000     0.252820000000     0.813200000000     0.0682764  
H156     H      0.723050000000     0.340300000000     0.789460000000     0.0497478  
H157     H      0.742290000000     0.393830000000     0.838990000000     0.060361   
H158     H      0.772420000000     0.224620000000     0.822440000000     0.0739836  
H159     H      0.787480000000     0.272440000000     0.875740000000     0.0376673  
H160     H      0.775510000000     0.365380000000     0.780180000000     0.0571376  
H161     H      0.793970000000     0.366240000000     0.846190000000     0.0533479  
H162     H      0.784430000000     0.378280000000     0.597650000000     0.069858   
H163     H      0.717630000000     0.319680000000     0.606640000000     0.0486796  
H164     H      0.713620000000     0.265030000000     0.553660000000     0.0595526  
H165     H      0.837920000000     0.355430000000     0.607270000000     0.0855588  
H166     H      0.830270000000     0.300270000000     0.555190000000     0.0380572  
H167     H      0.729890000000     0.261060000000     0.621900000000     0.0563202  
H168     H      0.768190000000     0.245800000000     0.562920000000     0.0499759  
H169     H      0.714660000000     0.566180000000     0.926400000000     0.0700148  
H170     H      0.633220000000     0.560230000000     0.455930000000     0.0480904  
H171     H      0.637840000000     0.516780000000     0.515310000000     0.0537751  
H172     H      0.750070000000     0.609200000000     0.946850000000     0.0792289  
H173     H      0.748590000000     0.567060000000     0.006990000000     0.0396141  
H174     H      0.622020000000     0.598730000000     0.494210000000     0.0541677  
H175     H      0.675740000000     0.558550000000     0.533960000000     0.0492894  
H176     H      0.226650000000     0.731100000000     0.840550000000     0.0717244  
H177     H      0.203910000000     0.807700000000     0.878830000000     0.0514656  
H178     H      0.267830000000     0.841650000000     0.909240000000     0.0573993  
H179     H      0.253830000000     0.740620000000     0.796790000000     0.0787197  
H180     H      0.316570000000     0.774280000000     0.828900000000     0.0396644  
H181     H      0.216950000000     0.863260000000     0.857760000000     0.0560451  
H182     H      0.294690000000     0.848140000000     0.865150000000     0.0526032  
H183     H      0.198020000000     0.790200000000     0.572160000000     0.0679177  
H184     H      0.255510000000     0.858110000000     0.578040000000     0.0482274  
H185     H      0.288730000000     0.856470000000     0.640370000000     0.0564463  
H186     H      0.218030000000     0.732060000000     0.564140000000     0.0815464  
H187     H      0.252670000000     0.730570000000     0.626310000000     0.0363379  
H188     H      0.311990000000     0.842680000000     0.574670000000     0.0563772  
H189     H      0.308610000000     0.798290000000     0.633330000000     0.0486365  
H190     H      0.516980000000     0.845960000000     0.947700000000     0.0682757  
H191     H      0.517460000000     0.834830000000     0.517000000000     0.0475204  
H192     H      0.469520000000     0.774140000000     0.538370000000     0.0556473  
H193     H      0.544490000000     0.805170000000     0.918200000000     0.0783064  
H194     H      0.492160000000     0.744950000000     0.929120000000     0.0409021  
H195     H      0.550020000000     0.789010000000     0.537630000000     0.0538053  
H196     H      0.500380000000     0.729480000000     0.515980000000     0.0492378  
H197     H      0.223240000000     0.243000000000     0.864180000000     0.067199   
H198     H      0.218340000000     0.332300000000     0.841770000000     0.0500101  
H199     H      0.289500000000     0.370180000000     0.845050000000     0.0623504  
H200     H      0.248220000000     0.202660000000     0.832600000000     0.0786891  
H201     H      0.318480000000     0.240250000000     0.839910000000     0.0428038  
H202     H      0.237990000000     0.345590000000     0.795600000000     0.0600216  
H203     H      0.312480000000     0.327170000000     0.814830000000     0.0592485  
H204     H      0.328900000000     0.257120000000     0.595830000000     0.0714889  
H205     H      0.255460000000     0.240790000000     0.556850000000     0.0528845  
H206     H      0.193830000000     0.277360000000     0.587740000000     0.0582292  
H207     H      0.351810000000     0.314720000000     0.591520000000     0.0764246  
H208     H      0.289530000000     0.349210000000     0.622730000000     0.0345269  
H209     H      0.234890000000     0.288440000000     0.528750000000     0.0582526  
H210     H      0.218750000000     0.333900000000     0.584510000000     0.0494489  
H211     H      0.516980000000     0.403200000000     0.930430000000     0.0681449  
H212     H      0.520330000000     0.360170000000     0.501830000000     0.0492526  
H213     H      0.485050000000     0.283870000000     0.496200000000     0.0585762  
H214     H      0.556660000000     0.381610000000     0.898140000000     0.0763773  
H215     H      0.523450000000     0.303910000000     0.899820000000     0.0368567  
H216     H      0.560530000000     0.314940000000     0.506390000000     0.0575738  
H217     H      0.522720000000     0.266270000000     0.460810000000     0.0508653  
H218     H      0.308240000000     0.539820000000     0.938250000000     0.0744344  
H219     H      0.394240000000     0.542330000000     0.961770000000     0.0513697  
H220     H      0.397290000000     0.584640000000     0.520820000000     0.0539219  
H221     H      0.274980000000     0.497010000000     0.961550000000     0.0783876  
H222     H      0.284760000000     0.537360000000     0.021210000000     0.0349499  
H223     H      0.407940000000     0.502350000000     0.499020000000     0.0538173  
H224     H      0.361020000000     0.543520000000     0.542470000000     0.0469351  
In1      In     0.352790000000     0.354990000000     0.463100000000     2.41547    
In2      In     0.336700000000     0.728060000000     0.482590000000     2.42181    
In3      In     0.691080000000     0.379660000000     0.462060000000     2.43587    
In4      In     0.676340000000     0.749640000000     0.470510000000     2.41671    
In5      In     0.844220000000     0.248780000000     0.208420000000     2.42418    
In6      In     0.840520000000     0.880390000000     0.220810000000     2.42087    
In7      In     0.178380000000     0.857700000000     0.229740000000     2.41048    
In8      In     0.186700000000     0.230010000000     0.213180000000     2.41523    
In9      In     0.352770000000     0.354990000000     0.963090000000     2.41472    
In10     In     0.336700000000     0.728060000000     0.982590000000     2.41983    
In11     In     0.691080000000     0.379630000000     0.962060000000     2.43532    
In12     In     0.676360000000     0.749610000000     0.970510000000     2.41514    
In13     In     0.844210000000     0.248770000000     0.708420000000     2.42412    
In14     In     0.840520000000     0.880370000000     0.720820000000     2.42101    
In15     In     0.178380000000     0.857690000000     0.729740000000     2.41052    
In16     In     0.186700000000     0.230010000000     0.713170000000     2.41532    
N1       N      0.195370000000     0.090440000000     0.190290000000    -0.174065   
N2       N      0.184170000000     0.999660000000     0.218750000000    -0.161001   
N3       N      0.963740000000     0.829340000000     0.229930000000    -0.170143   
N4       N      0.053240000000     0.813290000000     0.232130000000    -0.157838   
N5       N      0.837710000000     0.111470000000     0.178780000000    -0.174465   
N6       N      0.844090000000     0.022070000000     0.210020000000    -0.162663   
N7       N      0.972780000000     0.273380000000     0.227200000000    -0.168369   
N8       N      0.063820000000     0.275130000000     0.233880000000    -0.160253   
N9       N      0.730760000000     0.800830000000     0.374580000000    -0.171061   
N10      N      0.766230000000     0.845520000000     0.310750000000    -0.159352   
N11      N      0.789590000000     0.826100000000     0.124780000000    -0.172149   
N12      N      0.736010000000     0.794480000000     0.065560000000    -0.160113   
N13      N      0.741260000000     0.326120000000     0.366180000000    -0.171477   
N14      N      0.775130000000     0.293330000000     0.297810000000    -0.161274   
N15      N      0.764590000000     0.315510000000     0.042490000000    -0.171996   
N16      N      0.784340000000     0.308840000000     0.118510000000    -0.158933   
N17      N      0.702050000000     0.516680000000     0.490950000000    -0.173155   
N18      N      0.684200000000     0.607790000000     0.967310000000    -0.160415   
N19      N      0.289270000000     0.777530000000     0.382940000000    -0.171369   
N20      N      0.231180000000     0.802200000000     0.324980000000    -0.160385   
N21      N      0.240380000000     0.801190000000     0.140060000000    -0.173145   
N22      N      0.266000000000     0.786900000000     0.065740000000    -0.159882   
N23      N      0.462790000000     0.770530000000     0.978370000000    -0.170584   
N24      N      0.551060000000     0.794240000000     0.477540000000    -0.161416   
N25      N      0.297700000000     0.300520000000     0.368700000000    -0.170448   
N26      N      0.239000000000     0.272880000000     0.312030000000    -0.158702   
N27      N      0.249610000000     0.289040000000     0.123940000000    -0.172202   
N28      N      0.296190000000     0.300210000000     0.056670000000    -0.159825   
N29      N      0.478260000000     0.318360000000     0.442390000000    -0.172502   
N30      N      0.561210000000     0.354840000000     0.954720000000    -0.159265   
N31      N      0.330260000000     0.587240000000     0.502100000000    -0.173677   
N32      N      0.343160000000     0.496220000000     0.975920000000    -0.160328   
N33      N      0.195370000000     0.090440000000     0.690300000000    -0.174081   
N34      N      0.184170000000     0.999660000000     0.718760000000    -0.160971   
N35      N      0.963740000000     0.829330000000     0.729930000000    -0.170208   
N36      N      0.053240000000     0.813280000000     0.732130000000    -0.157795   
N37      N      0.837710000000     0.111460000000     0.678800000000    -0.174494   
N38      N      0.844090000000     0.022060000000     0.710040000000    -0.162659   
N39      N      0.972770000000     0.273380000000     0.727190000000    -0.168351   
N40      N      0.063810000000     0.275140000000     0.733860000000    -0.160277   
N41      N      0.730780000000     0.800780000000     0.874580000000    -0.171076   
N42      N      0.766240000000     0.845480000000     0.810750000000    -0.159354   
N43      N      0.789590000000     0.826100000000     0.624780000000    -0.172093   
N44      N      0.736000000000     0.794500000000     0.565560000000    -0.160191   
N45      N      0.741240000000     0.326100000000     0.866170000000    -0.171401   
N46      N      0.775120000000     0.293310000000     0.797810000000    -0.161339   
N47      N      0.764600000000     0.315560000000     0.542490000000    -0.171909   
N48      N      0.784330000000     0.308840000000     0.618510000000    -0.158912   
N49      N      0.702060000000     0.516650000000     0.990980000000    -0.17338    
N50      N      0.684180000000     0.607820000000     0.467280000000    -0.160416   
N51      N      0.289300000000     0.777550000000     0.882940000000    -0.171469   
N52      N      0.231200000000     0.802200000000     0.824990000000    -0.160409   
N53      N      0.240400000000     0.801180000000     0.640070000000    -0.173136   
N54      N      0.266000000000     0.786890000000     0.565750000000    -0.159982   
N55      N      0.462770000000     0.770560000000     0.478380000000    -0.170449   
N56      N      0.551070000000     0.794210000000     0.977530000000    -0.161499   
N57      N      0.297690000000     0.300530000000     0.868700000000    -0.170464   
N58      N      0.238990000000     0.272880000000     0.812020000000    -0.158736   
N59      N      0.249610000000     0.289040000000     0.623940000000    -0.172252   
N60      N      0.296200000000     0.300200000000     0.556670000000    -0.15978    
N61      N      0.478250000000     0.318370000000     0.942370000000    -0.17257    
N62      N      0.561220000000     0.354840000000     0.454730000000    -0.159479   
N63      N      0.330240000000     0.587240000000     0.002110000000    -0.172973   
N64      N      0.343170000000     0.496220000000     0.475920000000    -0.16027    
O1       O      0.295550000000     0.321890000000     0.994280000000    -0.493033   
O2       O      0.353230000000     0.334860000000     0.025330000000    -0.49172    
O3       O      0.319080000000     0.361910000000     0.406280000000    -0.489408   
O4       O      0.314780000000     0.423800000000     0.461540000000    -0.49318    
O5       O      0.415350000000     0.315220000000     0.977070000000    -0.490022   
O6       O      0.380720000000     0.426460000000     0.978900000000    -0.500761   
O7       O      0.331240000000     0.293560000000     0.426950000000    -0.473153   
O8       O      0.414660000000     0.358210000000     0.428520000000    -0.478814   
O9       O      0.301920000000     0.782910000000     0.446560000000    -0.502612   
O10      O      0.322310000000     0.720810000000     0.420210000000    -0.465654   
O11      O      0.278330000000     0.730400000000     0.021440000000    -0.492597   
O12      O      0.365070000000     0.658730000000     0.004300000000    -0.503031   
O13      O      0.398400000000     0.746220000000     0.451080000000    -0.477878   
O14      O      0.303020000000     0.657150000000     0.478660000000    -0.46861    
O15      O      0.324950000000     0.784780000000     0.026290000000    -0.487037   
O16      O      0.400990000000     0.748470000000     0.010430000000    -0.486719   
O17      O      0.702580000000     0.323140000000     0.006320000000    -0.485811   
O18      O      0.751920000000     0.373700000000     0.998360000000    -0.476198   
O19      O      0.713160000000     0.386650000000     0.401160000000    -0.489225   
O20      O      0.625860000000     0.383070000000     0.431200000000    -0.500956   
O21      O      0.668140000000     0.444810000000     0.992610000000    -0.510369   
O22      O      0.627370000000     0.351670000000     0.985390000000    -0.487657   
O23      O      0.717220000000     0.320050000000     0.427160000000    -0.48782    
O24      O      0.724180000000     0.450910000000     0.458900000000    -0.469008   
O25      O      0.716090000000     0.737120000000     0.023790000000    -0.498184   
O26      O      0.700260000000     0.807440000000     0.009370000000    -0.490803   
O27      O      0.684330000000     0.751800000000     0.407220000000    -0.472827   
O28      O      0.712680000000     0.681750000000     0.459220000000    -0.493552   
O29      O      0.614780000000     0.766070000000     0.003270000000    -0.498388   
O30      O      0.647690000000     0.676630000000     0.978470000000    -0.501004   
O31      O      0.722970000000     0.798300000000     0.439010000000    -0.494924   
O32      O      0.612950000000     0.777020000000     0.444520000000    -0.489997   
O33      O      0.788440000000     0.255310000000     0.166750000000    -0.500315   
O34      O      0.840920000000     0.302980000000     0.161010000000    -0.470708   
O35      O      0.812660000000     0.237280000000     0.265260000000    -0.499309   
O36      O      0.809180000000     0.179020000000     0.203220000000    -0.493694   
O37      O      0.909140000000     0.281230000000     0.192890000000    -0.465294   
O38      O      0.873900000000     0.182250000000     0.184150000000    -0.481571   
O39      O      0.813040000000     0.306440000000     0.243290000000    -0.503695   
O40      O      0.906140000000     0.242350000000     0.243770000000    -0.498952   
O41      O      0.823220000000     0.819220000000     0.182980000000    -0.466071   
O42      O      0.804840000000     0.887120000000     0.164850000000    -0.503015   
O43      O      0.824910000000     0.881980000000     0.283310000000    -0.48752    
O44      O      0.899360000000     0.855860000000     0.255290000000    -0.475605   
O45      O      0.875790000000     0.949090000000     0.208450000000    -0.504018   
O46      O      0.903530000000     0.853310000000     0.196140000000    -0.495621   
O47      O      0.783910000000     0.841500000000     0.248190000000    -0.490968   
O48      O      0.809110000000     0.952580000000     0.222780000000    -0.503169   
O49      O      0.215440000000     0.800790000000     0.261830000000    -0.497942   
O50      O      0.195820000000     0.860730000000     0.292030000000    -0.494027   
O51      O      0.186740000000     0.802140000000     0.185150000000    -0.467944   
O52      O      0.114560000000     0.838190000000     0.201300000000    -0.481012   
O53      O      0.148080000000     0.928980000000     0.215460000000    -0.501648   
O54      O      0.116400000000     0.838000000000     0.260870000000    -0.494938   
O55      O      0.232080000000     0.857530000000     0.185580000000    -0.49708    
O56      O      0.214070000000     0.927660000000     0.233050000000    -0.492377   
O57      O      0.245410000000     0.265080000000     0.186060000000    -0.470454   
O58      O      0.190610000000     0.252930000000     0.151630000000    -0.493693   
O59      O      0.215860000000     0.215770000000     0.271150000000    -0.483752   
O60      O      0.122460000000     0.226600000000     0.244760000000    -0.499951   
O61      O      0.223500000000     0.160710000000     0.211480000000    -0.47309    
O62      O      0.127560000000     0.276060000000     0.200330000000    -0.491293   
O63      O      0.211160000000     0.286560000000     0.252810000000    -0.490527   
O64      O      0.158490000000     0.160750000000     0.192130000000    -0.501393   
O65      O      0.295570000000     0.321870000000     0.494280000000    -0.492414   
O66      O      0.353240000000     0.334870000000     0.525330000000    -0.492077   
O67      O      0.319070000000     0.361910000000     0.906280000000    -0.489517   
O68      O      0.314770000000     0.423810000000     0.961530000000    -0.493203   
O69      O      0.415360000000     0.315230000000     0.477090000000    -0.490003   
O70      O      0.380740000000     0.426460000000     0.478890000000    -0.500663   
O71      O      0.331230000000     0.293560000000     0.926950000000    -0.473259   
O72      O      0.414650000000     0.358230000000     0.928510000000    -0.478574   
O73      O      0.301950000000     0.782920000000     0.946560000000    -0.502657   
O74      O      0.322310000000     0.720810000000     0.920210000000    -0.46541    
O75      O      0.278340000000     0.730380000000     0.521460000000    -0.493109   
O76      O      0.365090000000     0.658740000000     0.504290000000    -0.503961   
O77      O      0.398410000000     0.746180000000     0.951080000000    -0.477598   
O78      O      0.303020000000     0.657150000000     0.978660000000    -0.468349   
O79      O      0.324930000000     0.784790000000     0.526280000000    -0.487429   
O80      O      0.400980000000     0.748470000000     0.510430000000    -0.487784   
O81      O      0.702600000000     0.323150000000     0.506300000000    -0.48597    
O82      O      0.751920000000     0.373760000000     0.498380000000    -0.475325   
O83      O      0.713150000000     0.386630000000     0.901160000000    -0.489106   
O84      O      0.625860000000     0.383080000000     0.931200000000    -0.50069    
O85      O      0.668130000000     0.444840000000     0.492590000000    -0.510304   
O86      O      0.627380000000     0.351700000000     0.485390000000    -0.487701   
O87      O      0.717200000000     0.320020000000     0.927160000000    -0.487942   
O88      O      0.724190000000     0.450880000000     0.958920000000    -0.469026   
O89      O      0.716080000000     0.737150000000     0.523780000000    -0.498884   
O90      O      0.700250000000     0.807460000000     0.509380000000    -0.491465   
O91      O      0.684360000000     0.751750000000     0.907230000000    -0.472876   
O92      O      0.712700000000     0.681710000000     0.959230000000    -0.49348    
O93      O      0.614760000000     0.766090000000     0.503270000000    -0.499435   
O94      O      0.647670000000     0.676660000000     0.478450000000    -0.501009   
O95      O      0.722990000000     0.798270000000     0.939010000000    -0.494917   
O96      O      0.612970000000     0.776960000000     0.944510000000    -0.489694   
O97      O      0.788450000000     0.255270000000     0.666720000000    -0.5003     
O98      O      0.840890000000     0.303000000000     0.661040000000    -0.470821   
O99      O      0.812650000000     0.237270000000     0.765250000000    -0.499514   
O100     O      0.809170000000     0.179000000000     0.703230000000    -0.493654   
O101     O      0.909130000000     0.281190000000     0.692870000000    -0.465389   
O102     O      0.873890000000     0.182240000000     0.684160000000    -0.481657   
O103     O      0.813020000000     0.306430000000     0.743290000000    -0.503625   
O104     O      0.906140000000     0.242370000000     0.743780000000    -0.498873   
O105     O      0.823230000000     0.819210000000     0.682980000000    -0.465961   
O106     O      0.804830000000     0.887120000000     0.664860000000    -0.502863   
O107     O      0.824910000000     0.881960000000     0.783310000000    -0.487714   
O108     O      0.899370000000     0.855840000000     0.755290000000    -0.475642   
O109     O      0.875790000000     0.949070000000     0.708460000000    -0.50397    
O110     O      0.903530000000     0.853300000000     0.696140000000    -0.495611   
O111     O      0.783920000000     0.841470000000     0.748190000000    -0.49108    
O112     O      0.809110000000     0.952560000000     0.722790000000    -0.503106   
O113     O      0.215450000000     0.800790000000     0.761840000000    -0.497935   
O114     O      0.195830000000     0.860720000000     0.792040000000    -0.494009   
O115     O      0.186760000000     0.802120000000     0.685170000000    -0.468034   
O116     O      0.114570000000     0.838190000000     0.701300000000    -0.48104    
O117     O      0.148080000000     0.928970000000     0.715470000000    -0.501698   
O118     O      0.116410000000     0.837980000000     0.760880000000    -0.494765   
O119     O      0.232080000000     0.857530000000     0.685580000000    -0.497068   
O120     O      0.214070000000     0.927650000000     0.733050000000    -0.492419   
O121     O      0.245400000000     0.265090000000     0.686060000000    -0.470522   
O122     O      0.190620000000     0.252910000000     0.651620000000    -0.493928   
O123     O      0.215850000000     0.215770000000     0.771140000000    -0.483849   
O124     O      0.122460000000     0.226620000000     0.744760000000    -0.499909   
O125     O      0.223500000000     0.160700000000     0.711480000000    -0.473036   
O126     O      0.127560000000     0.276050000000     0.700310000000    -0.491262   
O127     O      0.211150000000     0.286560000000     0.752800000000    -0.490427   
O128     O      0.158480000000     0.160740000000     0.692140000000    -0.501313   


