data_structure

_audit_creation_method RASPA-1.0
_audit_creation_date 2023-6-5
_audit_author_name 'Poobodin Mano'

_cell_length_a    31.9462
_cell_length_b    31.966
_cell_length_c    31.1554
_cell_angle_alpha 89.5541
_cell_angle_beta  90.446
_cell_angle_gamma 89.9991
_cell_volume      31813.7

_symmetry_cell_setting          triclinic
_symmetry_space_group_name_Hall 'P 1'
_symmetry_space_group_name_H-M  'P 1'
_symmetry_Int_Tables_number     1

_symmetry_equiv_pos_as_xyz 'x,y,z'

loop_
_atom_site_label
_atom_site_type_symbol
_atom_site_fract_x
_atom_site_fract_y
_atom_site_fract_z
_atom_site_charge
C1       C      0.312960000000     0.399270000000     0.050680000000     0.430592   
C2       C      0.281970000000     0.276870000000     0.470340000000     0.404501   
C3       C      0.399410000000     0.302860000000     0.518880000000     0.406124   
C4       C      0.277090000000     0.279410000000     0.103660000000     0.404401   
C5       C      0.314360000000     0.568190000000     0.565120000000     0.401681   
C6       C      0.299050000000     0.692080000000     0.115870000000     0.434126   
C7       C      0.419510000000     0.646200000000     0.042930000000     0.432544   
C8       C      0.306960000000     0.690500000000     0.480380000000     0.432092   
C9       C      0.567710000000     0.320330000000     0.021390000000     0.427548   
C10      C      0.688930000000     0.293160000000     0.464240000000     0.436448   
C11      C      0.654690000000     0.418220000000     0.532960000000     0.434299   
C12      C      0.691190000000     0.304510000000     0.100270000000     0.432306   
C13      C      0.679500000000     0.586210000000     0.032110000000     0.403513   
C14      C      0.706330000000     0.709890000000     0.461050000000     0.404557   
C15      C      0.586340000000     0.674770000000     0.530090000000     0.405616   
C16      C      0.713400000000     0.707050000000     0.093560000000     0.403825   
C17      C      0.808060000000     0.082140000000     0.284270000000     0.438301   
C18      C      0.779700000000     0.204150000000     0.349540000000     0.404639   
C19      C      0.896660000000     0.179160000000     0.276410000000     0.400993   
C20      C      0.771670000000     0.204890000000     0.214950000000     0.410868   
C21      C      0.927180000000     0.819490000000     0.279110000000     0.43588    
C22      C      0.802170000000     0.795140000000     0.345630000000     0.432849   
C23      C      0.839430000000     0.915650000000     0.277800000000     0.410032   
C24      C      0.804940000000     0.794870000000     0.210960000000     0.432867   
C25      C      0.097300000000     0.828040000000     0.294250000000     0.408556   
C26      C      0.217530000000     0.790380000000     0.230030000000     0.404498   
C27      C      0.196230000000     0.909400000000     0.304320000000     0.403462   
C28      C      0.217070000000     0.781850000000     0.364090000000     0.406296   
C29      C      0.065540000000     0.162980000000     0.290070000000     0.430743   
C30      C      0.179880000000     0.193110000000     0.367030000000     0.436581   
C31      C      0.163210000000     0.074370000000     0.293920000000     0.436467   
C32      C      0.192740000000     0.203390000000     0.236050000000     0.437278   
C33      C      0.189200000000     0.975230000000     0.344700000000    -0.0182081  
C34      C      0.218550000000     0.976270000000     0.270720000000    -0.102985   
C35      C      0.155580000000     0.006710000000     0.331280000000    -0.00195219 
C36      C      0.186350000000     0.009430000000     0.256720000000     0.326246   
C37      C      0.028750000000     0.820000000000     0.329740000000    -0.0166437  
C38      C      0.033360000000     0.848490000000     0.254270000000    -0.102723   
C39      C      0.990850000000     0.793700000000     0.316370000000    -0.00635013 
C40      C      0.995880000000     0.821520000000     0.241220000000     0.325194   
C41      C      0.852450000000     0.983490000000     0.313290000000    -0.0155513  
C42      C      0.822450000000     0.981000000000     0.238360000000    -0.102762   
C43      C      0.819810000000     0.016460000000     0.325040000000    -0.00610251 
C44      C      0.789680000000     0.013610000000     0.250700000000     0.326101   
C45      C      0.963470000000     0.172940000000     0.237110000000    -0.0175399  
C46      C      0.961560000000     0.207320000000     0.308870000000    -0.103451   
C47      C      0.999960000000     0.145330000000     0.252110000000    -0.00557681 
C48      C      0.997650000000     0.179760000000     0.324830000000     0.324809   
C49      C      0.754410000000     0.707350000000     0.399370000000    -0.0172269  
C50      C      0.712100000000     0.771960000000     0.413250000000    -0.102573   
C51      C      0.793570000000     0.734100000000     0.393610000000    -0.00538683 
C52      C      0.751140000000     0.799060000000     0.406040000000     0.324081   
C53      C      0.714590000000     0.757990000000     0.152820000000    -0.0171651  
C54      C      0.774880000000     0.708580000000     0.142270000000    -0.103297   
C55      C      0.745450000000     0.793810000000     0.160000000000    -0.00553443 
C56      C      0.805670000000     0.744550000000     0.149890000000     0.325433   
C57      C      0.731600000000     0.202250000000     0.411550000000    -0.0169327  
C58      C      0.777390000000     0.264720000000     0.398320000000    -0.103416   
C59      C      0.693900000000     0.231140000000     0.417730000000    -0.00587098 
C60      C      0.739750000000     0.293660000000     0.403730000000     0.32608    
C61      C      0.773550000000     0.244400000000     0.146340000000    -0.016998   
C62      C      0.704730000000     0.225430000000     0.180310000000    -0.103608   
C63      C      0.757520000000     0.288970000000     0.138610000000    -0.00612284 
C64      C      0.689370000000     0.270280000000     0.172790000000     0.326145   
C65      C      0.687950000000     0.519290000000     0.494000000000    -0.017116   
C66      C      0.686030000000     0.520460000000     0.074350000000    -0.102495   
C67      C      0.654570000000     0.485210000000     0.493430000000    -0.00441888 
C68      C      0.653700000000     0.484940000000     0.074330000000     0.324648   
C69      C      0.259820000000     0.780210000000     0.430660000000    -0.0171718  
C70      C      0.226980000000     0.714300000000     0.402170000000    -0.10311    
C71      C      0.300730000000     0.756440000000     0.438800000000    -0.00599777 
C72      C      0.268230000000     0.690950000000     0.410190000000     0.325191   
C73      C      0.212170000000     0.742370000000     0.168300000000    -0.0168328  
C74      C      0.277810000000     0.783610000000     0.181130000000    -0.103181   
C75      C      0.238140000000     0.702630000000     0.162780000000    -0.00578415 
C76      C      0.304070000000     0.744030000000     0.175240000000     0.325058   
C77      C      0.521470000000     0.682640000000     0.071980000000    -0.017519   
C78      C      0.517820000000     0.672900000000     0.492140000000    -0.102664   
C79      C      0.488960000000     0.648150000000     0.078020000000    -0.00455538 
C80      C      0.483930000000     0.639310000000     0.498130000000     0.324462   
C81      C      0.232310000000     0.278760000000     0.409040000000    -0.0193295  
C82      C      0.268070000000     0.211570000000     0.430660000000    -0.106405   
C83      C      0.189940000000     0.256460000000     0.410690000000    -0.00294908 
C84      C      0.225450000000     0.189880000000     0.432530000000     0.329732   
C85      C      0.210310000000     0.254250000000     0.133490000000    -0.0181584  
C86      C      0.279270000000     0.231060000000     0.165670000000    -0.104581   
C87      C      0.191910000000     0.256890000000     0.178530000000    -0.00362336 
C88      C      0.260320000000     0.233580000000     0.210520000000     0.327562   
C89      C      0.466320000000     0.266480000000     0.534240000000    -0.0160921  
C90      C      0.460940000000     0.316790000000     0.473060000000    -0.102289   
C91      C      0.504160000000     0.289770000000     0.052330000000    -0.00569117 
C92      C      0.499260000000     0.340860000000     0.989380000000     0.324624   
C93      C      0.323850000000     0.501560000000     0.105370000000    -0.0172267  
C94      C      0.269950000000     0.507230000000     0.547520000000    -0.102809   
C95      C      0.341850000000     0.462050000000     0.085050000000    -0.00488199 
C96      C      0.287180000000     0.468390000000     0.525440000000     0.325031   
C97      C      0.312960000000     0.399270000000     0.550680000000     0.430622   
C98      C      0.281970000000     0.276870000000     0.970330000000     0.404443   
C99      C      0.399420000000     0.302860000000     0.018880000000     0.405906   
C100     C      0.277090000000     0.279410000000     0.603660000000     0.404397   
C101     C      0.314360000000     0.568190000000     0.065120000000     0.401841   
C102     C      0.299050000000     0.692080000000     0.615870000000     0.434118   
C103     C      0.419510000000     0.646200000000     0.542930000000     0.432325   
C104     C      0.306960000000     0.690500000000     0.980380000000     0.432255   
C105     C      0.567710000000     0.320330000000     0.521400000000     0.427613   
C106     C      0.688930000000     0.293160000000     0.964240000000     0.436438   
C107     C      0.654690000000     0.418220000000     0.032960000000     0.434331   
C108     C      0.691190000000     0.304510000000     0.600270000000     0.43237    
C109     C      0.679500000000     0.586220000000     0.532110000000     0.403734   
C110     C      0.706320000000     0.709890000000     0.961050000000     0.404324   
C111     C      0.586340000000     0.674760000000     0.030100000000     0.405455   
C112     C      0.713400000000     0.707050000000     0.593560000000     0.403669   
C113     C      0.808060000000     0.082140000000     0.784270000000     0.438293   
C114     C      0.779700000000     0.204150000000     0.849540000000     0.404642   
C115     C      0.896660000000     0.179160000000     0.776410000000     0.400994   
C116     C      0.771670000000     0.204890000000     0.714950000000     0.410871   
C117     C      0.927170000000     0.819490000000     0.779120000000     0.43586    
C118     C      0.802170000000     0.795140000000     0.845630000000     0.432859   
C119     C      0.839430000000     0.915650000000     0.777800000000     0.410037   
C120     C      0.804950000000     0.794860000000     0.710970000000     0.432666   
C121     C      0.097300000000     0.828040000000     0.794250000000     0.40864    
C122     C      0.217530000000     0.790380000000     0.730030000000     0.404498   
C123     C      0.196240000000     0.909400000000     0.804320000000     0.403311   
C124     C      0.217070000000     0.781850000000     0.864090000000     0.406467   
C125     C      0.065540000000     0.162980000000     0.790070000000     0.430752   
C126     C      0.179880000000     0.193110000000     0.867030000000     0.436484   
C127     C      0.163210000000     0.074370000000     0.793920000000     0.43647    
C128     C      0.192740000000     0.203390000000     0.736050000000     0.437283   
C129     C      0.189200000000     0.975230000000     0.844700000000    -0.0182301  
C130     C      0.218550000000     0.976270000000     0.770720000000    -0.102954   
C131     C      0.155580000000     0.006710000000     0.831280000000    -0.00194149 
C132     C      0.186350000000     0.009430000000     0.756720000000     0.326241   
C133     C      0.028750000000     0.820000000000     0.829740000000    -0.0166184  
C134     C      0.033360000000     0.848490000000     0.754270000000    -0.102799   
C135     C      0.990850000000     0.793700000000     0.816370000000    -0.00634796 
C136     C      0.995880000000     0.821530000000     0.741220000000     0.325247   
C137     C      0.852450000000     0.983490000000     0.813290000000    -0.0155185  
C138     C      0.822450000000     0.981000000000     0.738360000000    -0.10275    
C139     C      0.819810000000     0.016460000000     0.825040000000    -0.00607115 
C140     C      0.789680000000     0.013610000000     0.750700000000     0.325971   
C141     C      0.963470000000     0.172940000000     0.737110000000    -0.0175422  
C142     C      0.961560000000     0.207320000000     0.808870000000    -0.103413   
C143     C      0.999960000000     0.145330000000     0.752110000000    -0.00557873 
C144     C      0.997650000000     0.179760000000     0.824820000000     0.324701   
C145     C      0.754410000000     0.707360000000     0.899370000000    -0.0171798  
C146     C      0.712110000000     0.771960000000     0.913250000000    -0.102558   
C147     C      0.793570000000     0.734100000000     0.893610000000    -0.00537412 
C148     C      0.751140000000     0.799070000000     0.906040000000     0.324252   
C149     C      0.714590000000     0.757990000000     0.652820000000    -0.0171396  
C150     C      0.774880000000     0.708580000000     0.642270000000    -0.1033     
C151     C      0.745440000000     0.793810000000     0.660000000000    -0.0056138  
C152     C      0.805660000000     0.744550000000     0.649890000000     0.325277   
C153     C      0.731610000000     0.202250000000     0.911550000000    -0.0168917  
C154     C      0.777390000000     0.264720000000     0.898320000000    -0.103417   
C155     C      0.693900000000     0.231140000000     0.917730000000    -0.00589077 
C156     C      0.739750000000     0.293660000000     0.903730000000     0.326083   
C157     C      0.773550000000     0.244400000000     0.646340000000    -0.0170202  
C158     C      0.704730000000     0.225430000000     0.680310000000    -0.103537   
C159     C      0.757520000000     0.288970000000     0.638610000000    -0.00606089 
C160     C      0.689370000000     0.270280000000     0.672780000000     0.325997   
C161     C      0.687950000000     0.519290000000     0.994000000000    -0.0170086  
C162     C      0.686030000000     0.520460000000     0.574350000000    -0.102493   
C163     C      0.654560000000     0.485210000000     0.993430000000    -0.00436371 
C164     C      0.653700000000     0.484940000000     0.574330000000     0.32466    
C165     C      0.259820000000     0.780210000000     0.930660000000    -0.0171337  
C166     C      0.226980000000     0.714300000000     0.902170000000    -0.103198   
C167     C      0.300730000000     0.756440000000     0.938810000000    -0.00599452 
C168     C      0.268230000000     0.690950000000     0.910190000000     0.325225   
C169     C      0.212170000000     0.742370000000     0.668300000000    -0.0168283  
C170     C      0.277810000000     0.783610000000     0.681130000000    -0.103056   
C171     C      0.238140000000     0.702620000000     0.662780000000    -0.00581332 
C172     C      0.304070000000     0.744020000000     0.675240000000     0.325024   
C173     C      0.521470000000     0.682640000000     0.571980000000    -0.0174581  
C174     C      0.517820000000     0.672890000000     0.992140000000    -0.102475   
C175     C      0.488960000000     0.648150000000     0.578020000000    -0.00455115 
C176     C      0.483930000000     0.639300000000     0.998130000000     0.324458   
C177     C      0.232310000000     0.278760000000     0.909040000000    -0.0193323  
C178     C      0.268070000000     0.211570000000     0.930660000000    -0.106324   
C179     C      0.189940000000     0.256460000000     0.910690000000    -0.0029523  
C180     C      0.225450000000     0.189880000000     0.932530000000     0.329708   
C181     C      0.210310000000     0.254250000000     0.633490000000    -0.0181621  
C182     C      0.279270000000     0.231060000000     0.665670000000    -0.104585   
C183     C      0.191910000000     0.256890000000     0.678530000000    -0.0036212  
C184     C      0.260320000000     0.233580000000     0.710520000000     0.327564   
C185     C      0.466320000000     0.266480000000     0.034240000000    -0.0160972  
C186     C      0.460930000000     0.316790000000     0.973060000000    -0.102145   
C187     C      0.504160000000     0.289770000000     0.552330000000    -0.00571962 
C188     C      0.499260000000     0.340860000000     0.489380000000     0.324449   
C189     C      0.323850000000     0.501560000000     0.605370000000    -0.0172362  
C190     C      0.269950000000     0.507230000000     0.047520000000    -0.102747   
C191     C      0.341850000000     0.462050000000     0.585050000000    -0.0048727  
C192     C      0.287180000000     0.468390000000     0.025440000000     0.324819   
F1       F      0.204860000000     0.036020000000     0.227090000000    -0.414388   
F2       F      0.974300000000     0.841480000000     0.208180000000    -0.416938   
F3       F      0.778810000000     0.036970000000     0.214670000000    -0.419823   
F4       F      0.021190000000     0.202400000000     0.354110000000    -0.41837    
F5       F      0.738860000000     0.836920000000     0.388000000000    -0.421135   
F6       F      0.841790000000     0.728580000000     0.168690000000    -0.41615    
F7       F      0.753570000000     0.331440000000     0.420120000000    -0.417003   
F8       F      0.646250000000     0.270080000000     0.167640000000    -0.413236   
F9       F      0.660340000000     0.460070000000     0.110380000000    -0.417191   
F10      F      0.259570000000     0.649290000000     0.418970000000    -0.413769   
F11      F      0.342220000000     0.755190000000     0.157640000000    -0.418303   
F12      F      0.456900000000     0.640530000000     0.463150000000    -0.417867   
F13      F      0.230040000000     0.147730000000     0.423670000000    -0.414884   
F14      F      0.279490000000     0.203910000000     0.236710000000    -0.414662   
F15      F      0.521680000000     0.354740000000     0.454100000000    -0.417225   
F16      F      0.253750000000     0.447010000000     0.507310000000    -0.415182   
F17      F      0.204860000000     0.036020000000     0.727090000000    -0.414375   
F18      F      0.974300000000     0.841480000000     0.708180000000    -0.416961   
F19      F      0.778810000000     0.036970000000     0.714660000000    -0.419746   
F20      F      0.021190000000     0.202400000000     0.854110000000    -0.418305   
F21      F      0.738850000000     0.836920000000     0.888010000000    -0.421206   
F22      F      0.841790000000     0.728580000000     0.668690000000    -0.416067   
F23      F      0.753570000000     0.331440000000     0.920120000000    -0.416987   
F24      F      0.646240000000     0.270080000000     0.667650000000    -0.413166   
F25      F      0.660340000000     0.460070000000     0.610380000000    -0.417183   
F26      F      0.259570000000     0.649290000000     0.918970000000    -0.413755   
F27      F      0.342220000000     0.755190000000     0.657640000000    -0.418274   
F28      F      0.456890000000     0.640530000000     0.963150000000    -0.417787   
F29      F      0.230040000000     0.147730000000     0.923670000000    -0.414863   
F30      F      0.279490000000     0.203910000000     0.736710000000    -0.414656   
F31      F      0.521680000000     0.354740000000     0.954100000000    -0.417232   
F32      F      0.253750000000     0.447000000000     0.007310000000    -0.415159   
H1       H      0.247470000000     0.992660000000     0.281440000000     0.101594   
H2       H      0.216540000000     0.992800000000     0.357570000000     0.0633715  
H3       H      0.147560000000     0.026000000000     0.359590000000     0.0647575  
H4       H      0.226720000000     0.956560000000     0.242770000000     0.103267   
H5       H      0.159900000000     0.993150000000     0.240560000000     0.0013798  
H6       H      0.177020000000     0.954840000000     0.370830000000     0.0615516  
H7       H      0.126990000000     0.989160000000     0.321700000000     0.0443895  
H8       H      0.021750000000     0.880220000000     0.262470000000     0.0897852  
H9       H      0.017150000000     0.849530000000     0.344050000000     0.0503137  
H10      H      0.969880000000     0.789800000000     0.344420000000     0.0582999  
H11      H      0.054610000000     0.851780000000     0.226350000000     0.100842   
H12      H      0.008060000000     0.791360000000     0.228870000000     0.00805325 
H13      H      0.046690000000     0.802770000000     0.354980000000     0.05806    
H14      H      0.002230000000     0.762130000000     0.307310000000     0.0517766  
H15      H      0.849380000000     0.997530000000     0.223460000000     0.0936392  
H16      H      0.881630000000     0.999950000000     0.303720000000     0.0496714  
H17      H      0.833160000000     0.037300000000     0.350040000000     0.0577385  
H18      H      0.808730000000     0.959780000000     0.213890000000     0.105041   
H19      H      0.761320000000     0.996660000000     0.261860000000     0.00734202 
H20      H      0.859740000000     0.964060000000     0.342140000000     0.0607534  
H21      H      0.792440000000     0.000060000000     0.339200000000     0.055431   
H22      H      0.974900000000     0.236970000000     0.295990000000     0.0951494  
H23      H      0.976600000000     0.201210000000     0.221130000000     0.0538318  
H24      H      0.020540000000     0.139200000000     0.224240000000     0.0585002  
H25      H      0.941160000000     0.215300000000     0.336370000000     0.102934   
H26      H      0.984140000000     0.152240000000     0.341820000000     0.000980192
H27      H      0.944480000000     0.155720000000     0.212970000000     0.0601202  
H28      H      0.987050000000     0.114780000000     0.263030000000     0.0454292  
H29      H      0.694400000000     0.770210000000     0.382440000000     0.0944227  
H30      H      0.740050000000     0.702220000000     0.367210000000     0.0534987  
H31      H      0.814850000000     0.718190000000     0.370870000000     0.0597448  
H32      H      0.691670000000     0.787360000000     0.437150000000     0.0995285  
H33      H      0.765600000000     0.805400000000     0.437920000000     0.00201134 
H34      H      0.763630000000     0.676320000000     0.412730000000     0.0609828  
H35      H      0.810050000000     0.735990000000     0.425110000000     0.0489377  
H36      H      0.770290000000     0.691650000000     0.173200000000     0.0947205  
H37      H      0.705900000000     0.744820000000     0.184670000000     0.0535859  
H38      H      0.731180000000     0.816800000000     0.182130000000     0.0616613  
H39      H      0.788870000000     0.686280000000     0.119220000000     0.101132   
H40      H      0.814000000000     0.758160000000     0.118120000000     0.00498721 
H41      H      0.685680000000     0.770660000000     0.137460000000     0.0611748  
H42      H      0.750510000000     0.809920000000     0.128700000000     0.0514295  
H43      H      0.793660000000     0.261650000000     0.429880000000     0.0944446  
H44      H      0.745610000000     0.195420000000     0.443630000000     0.0523402  
H45      H      0.672360000000     0.216450000000     0.441310000000     0.0587411  
H46      H      0.799640000000     0.279240000000     0.375330000000     0.103907   
H47      H      0.725940000000     0.299720000000     0.371400000000     0.00643391 
H48      H      0.720680000000     0.172180000000     0.397700000000     0.0609361  
H49      H      0.676860000000     0.233810000000     0.386570000000     0.0536597  
H50      H      0.693960000000     0.205920000000     0.152970000000     0.0967623  
H51      H      0.767740000000     0.226050000000     0.116710000000     0.0536699  
H52      H      0.772530000000     0.302110000000     0.109400000000     0.0613867  
H53      H      0.690280000000     0.212780000000     0.210060000000     0.104349   
H54      H      0.697050000000     0.288680000000     0.201960000000     0.0077191  
H55      H      0.807930000000     0.245360000000     0.152000000000     0.0602449  
H56      H      0.767370000000     0.308440000000     0.166340000000     0.0531887  
H57      H      0.717720000000     0.506390000000     0.077930000000     0.0970496  
H58      H      0.719220000000     0.504010000000     0.493630000000     0.0593213  
H59      H      0.659260000000     0.465490000000     0.464640000000     0.0699523  
H60      H      0.680620000000     0.540830000000     0.102540000000     0.100721   
H61      H      0.622050000000     0.499170000000     0.076680000000     0.00263591 
H62      H      0.684890000000     0.538760000000     0.464420000000     0.0635147  
H63      H      0.623390000000     0.500450000000     0.490160000000     0.0532906  
H64      H      0.206460000000     0.709310000000     0.430430000000     0.0933021  
H65      H      0.241650000000     0.780150000000     0.460970000000     0.0520931  
H66      H      0.317300000000     0.770540000000     0.466660000000     0.0615155  
H67      H      0.211000000000     0.700680000000     0.373690000000     0.100542   
H68      H      0.286800000000     0.692510000000     0.380170000000     0.00681759 
H69      H      0.267200000000     0.813280000000     0.422420000000     0.0603008  
H70      H      0.320930000000     0.760620000000     0.410180000000     0.0532335  
H71      H      0.275690000000     0.800240000000     0.149700000000     0.0953678  
H72      H      0.206600000000     0.756490000000     0.136020000000     0.0527638  
H73      H      0.221640000000     0.681710000000     0.139870000000     0.0572797  
H74      H      0.294020000000     0.804610000000     0.204170000000     0.103001   
H75      H      0.310100000000     0.730090000000     0.207520000000     0.00354962 
H76      H      0.181260000000     0.733890000000     0.182020000000     0.0602032  
H77      H      0.239910000000     0.686140000000     0.194300000000     0.049484   
H78      H      0.502060000000     0.703400000000     0.485980000000     0.09588    
H79      H      0.504870000000     0.713210000000     0.070660000000     0.0589036  
H80      H      0.470970000000     0.654420000000     0.107680000000     0.0646961  
H81      H      0.536750000000     0.665280000000     0.463440000000     0.100309   
H82      H      0.499630000000     0.608250000000     0.498770000000     0.00250788 
H83      H      0.542870000000     0.682930000000     0.100280000000     0.0622717  
H84      H      0.505770000000     0.617980000000     0.082770000000     0.0486615  
H85      H      0.281460000000     0.206570000000     0.398260000000     0.101778   
H86      H      0.243840000000     0.277670000000     0.375480000000     0.0595987  
H87      H      0.168080000000     0.271390000000     0.387250000000     0.0655829  
H88      H      0.289570000000     0.196970000000     0.454670000000     0.104791   
H89      H      0.213530000000     0.192700000000     0.465840000000     0.00423237 
H90      H      0.228080000000     0.312150000000     0.417730000000     0.0704156  
H91      H      0.176770000000     0.260610000000     0.443330000000     0.0549721  
H92      H      0.277200000000     0.198120000000     0.154610000000     0.102795   
H93      H      0.201870000000     0.223350000000     0.119730000000     0.0576891  
H94      H      0.157840000000     0.249990000000     0.176600000000     0.058176   
H95      H      0.313000000000     0.239480000000     0.167780000000     0.104616   
H96      H      0.267520000000     0.265040000000     0.223660000000     0.000966911
H97      H      0.195630000000     0.278870000000     0.112950000000     0.0603675  
H98      H      0.195560000000     0.289560000000     0.189990000000     0.0475738  
H99      H      0.471730000000     0.292830000000     0.449930000000     0.0980427  
H100     H      0.477850000000     0.241350000000     0.512850000000     0.0564444  
H101     H      0.525580000000     0.266530000000     0.067640000000     0.0689389  
H102     H      0.439680000000     0.338660000000     0.455550000000     0.102226   
H103     H      0.488130000000     0.368690000000     0.007180000000     0.00336766 
H104     H      0.448930000000     0.251410000000     0.060990000000     0.0648469  
H105     H      0.493200000000     0.311140000000     0.077890000000     0.0554726  
H106     H      0.244780000000     0.497190000000     0.069830000000     0.0959152  
H107     H      0.300180000000     0.491840000000     0.129470000000     0.0532122  
H108     H      0.352380000000     0.440510000000     0.111180000000     0.0569384  
H109     H      0.255680000000     0.528410000000     0.523000000000     0.111224   
H110     H      0.308210000000     0.478750000000     0.499140000000     0.0105283  
H111     H      0.349240000000     0.518520000000     0.122540000000     0.0601629  
H112     H      0.369990000000     0.471040000000     0.566330000000     0.0500235  
H113     H      0.247470000000     0.992660000000     0.781440000000     0.101593   
H114     H      0.216540000000     0.992790000000     0.857570000000     0.0633861  
H115     H      0.147560000000     0.026000000000     0.859590000000     0.0647648  
H116     H      0.226720000000     0.956550000000     0.742770000000     0.103261   
H117     H      0.159900000000     0.993150000000     0.740560000000     0.00139068 
H118     H      0.177020000000     0.954840000000     0.870830000000     0.0615711  
H119     H      0.126990000000     0.989160000000     0.821700000000     0.0443954  
H120     H      0.021750000000     0.880220000000     0.762470000000     0.089799   
H121     H      0.017150000000     0.849530000000     0.844050000000     0.050312   
H122     H      0.969880000000     0.789800000000     0.844420000000     0.058308   
H123     H      0.054610000000     0.851780000000     0.726350000000     0.100865   
H124     H      0.008060000000     0.791360000000     0.728870000000     0.00810071 
H125     H      0.046690000000     0.802770000000     0.854990000000     0.0580574  
H126     H      0.002230000000     0.762120000000     0.807310000000     0.0517816  
H127     H      0.849380000000     0.997530000000     0.723460000000     0.0936469  
H128     H      0.881630000000     0.999950000000     0.803720000000     0.0496693  
H129     H      0.833160000000     0.037300000000     0.850050000000     0.0577322  
H130     H      0.808730000000     0.959780000000     0.713890000000     0.10505    
H131     H      0.761320000000     0.996660000000     0.761860000000     0.00737444 
H132     H      0.859740000000     0.964060000000     0.842140000000     0.0607554  
H133     H      0.792440000000     0.000060000000     0.839210000000     0.0554269  
H134     H      0.974900000000     0.236970000000     0.795980000000     0.0951377  
H135     H      0.976600000000     0.201210000000     0.721130000000     0.0538381  
H136     H      0.020540000000     0.139200000000     0.724240000000     0.0585086  
H137     H      0.941160000000     0.215300000000     0.836370000000     0.102941   
H138     H      0.984130000000     0.152240000000     0.841820000000     0.0010561  
H139     H      0.944480000000     0.155720000000     0.712970000000     0.0601292  
H140     H      0.987050000000     0.114780000000     0.763030000000     0.0454327  
H141     H      0.694400000000     0.770200000000     0.882440000000     0.0944084  
H142     H      0.740050000000     0.702220000000     0.867210000000     0.0534787  
H143     H      0.814850000000     0.718190000000     0.870870000000     0.0597509  
H144     H      0.691670000000     0.787360000000     0.937150000000     0.0995445  
H145     H      0.765600000000     0.805400000000     0.937920000000     0.00197875 
H146     H      0.763630000000     0.676320000000     0.912720000000     0.0609719  
H147     H      0.810050000000     0.735990000000     0.925120000000     0.0489528  
H148     H      0.770290000000     0.691650000000     0.673200000000     0.0947237  
H149     H      0.705900000000     0.744820000000     0.684670000000     0.0535798  
H150     H      0.731180000000     0.816800000000     0.682130000000     0.0616981  
H151     H      0.788870000000     0.686280000000     0.619220000000     0.101146   
H152     H      0.814000000000     0.758160000000     0.618120000000     0.00507018 
H153     H      0.685680000000     0.770660000000     0.637460000000     0.0611812  
H154     H      0.750510000000     0.809920000000     0.628700000000     0.0514729  
H155     H      0.793660000000     0.261650000000     0.929880000000     0.0944649  
H156     H      0.745610000000     0.195420000000     0.943630000000     0.0523522  
H157     H      0.672360000000     0.216450000000     0.941310000000     0.0587656  
H158     H      0.799640000000     0.279240000000     0.875330000000     0.103915   
H159     H      0.725940000000     0.299720000000     0.871400000000     0.00643512 
H160     H      0.720680000000     0.172180000000     0.897700000000     0.0609334  
H161     H      0.676860000000     0.233810000000     0.886570000000     0.053669   
H162     H      0.693950000000     0.205920000000     0.652970000000     0.0967429  
H163     H      0.767740000000     0.226050000000     0.616710000000     0.0536911  
H164     H      0.772530000000     0.302110000000     0.609390000000     0.0613945  
H165     H      0.690280000000     0.212780000000     0.710060000000     0.104341   
H166     H      0.697050000000     0.288680000000     0.701960000000     0.00780708 
H167     H      0.807930000000     0.245360000000     0.652000000000     0.0602601  
H168     H      0.767370000000     0.308440000000     0.666350000000     0.0531787  
H169     H      0.717720000000     0.506390000000     0.577930000000     0.0970723  
H170     H      0.719220000000     0.504010000000     0.993630000000     0.0593412  
H171     H      0.659260000000     0.465490000000     0.964640000000     0.0699558  
H172     H      0.680620000000     0.540830000000     0.602540000000     0.100729   
H173     H      0.622050000000     0.499170000000     0.576680000000     0.00265585 
H174     H      0.684890000000     0.538770000000     0.964420000000     0.0635053  
H175     H      0.623390000000     0.500450000000     0.990160000000     0.0533187  
H176     H      0.206460000000     0.709310000000     0.930420000000     0.0933564  
H177     H      0.241650000000     0.780150000000     0.960970000000     0.0521104  
H178     H      0.317300000000     0.770540000000     0.966660000000     0.0615532  
H179     H      0.211000000000     0.700680000000     0.873690000000     0.100568   
H180     H      0.286800000000     0.692510000000     0.880170000000     0.00681401 
H181     H      0.267200000000     0.813280000000     0.922420000000     0.0603056  
H182     H      0.320930000000     0.760620000000     0.910180000000     0.0532419  
H183     H      0.275690000000     0.800250000000     0.649700000000     0.0953459  
H184     H      0.206600000000     0.756490000000     0.636020000000     0.0527813  
H185     H      0.221640000000     0.681710000000     0.639870000000     0.0572995  
H186     H      0.294020000000     0.804610000000     0.704170000000     0.102978   
H187     H      0.310100000000     0.730090000000     0.707520000000     0.00353456 
H188     H      0.181260000000     0.733900000000     0.682020000000     0.0602176  
H189     H      0.239910000000     0.686130000000     0.694300000000     0.0494921  
H190     H      0.502050000000     0.703400000000     0.985980000000     0.0958664  
H191     H      0.504870000000     0.713220000000     0.570660000000     0.0589027  
H192     H      0.470970000000     0.654420000000     0.607680000000     0.0647053  
H193     H      0.536750000000     0.665280000000     0.963440000000     0.100284   
H194     H      0.499620000000     0.608250000000     0.998770000000     0.00248269 
H195     H      0.542880000000     0.682930000000     0.600280000000     0.0622633  
H196     H      0.505780000000     0.617980000000     0.582770000000     0.0486789  
H197     H      0.281460000000     0.206570000000     0.898250000000     0.101751   
H198     H      0.243840000000     0.277670000000     0.875480000000     0.0596029  
H199     H      0.168080000000     0.271390000000     0.887250000000     0.0655917  
H200     H      0.289570000000     0.196970000000     0.954670000000     0.10479    
H201     H      0.213530000000     0.192700000000     0.965840000000     0.00426304 
H202     H      0.228090000000     0.312150000000     0.917730000000     0.070434   
H203     H      0.176770000000     0.260610000000     0.943330000000     0.054996   
H204     H      0.277200000000     0.198120000000     0.654610000000     0.102807   
H205     H      0.201870000000     0.223350000000     0.619730000000     0.0577076  
H206     H      0.157840000000     0.249990000000     0.676600000000     0.0581844  
H207     H      0.313000000000     0.239480000000     0.667780000000     0.104621   
H208     H      0.267520000000     0.265040000000     0.723660000000     0.000969924
H209     H      0.195630000000     0.278870000000     0.612950000000     0.0603817  
H210     H      0.195560000000     0.289560000000     0.689990000000     0.0475789  
H211     H      0.471730000000     0.292830000000     0.949930000000     0.0980323  
H212     H      0.477850000000     0.241350000000     0.012850000000     0.0564048  
H213     H      0.525580000000     0.266530000000     0.567640000000     0.0689554  
H214     H      0.439680000000     0.338670000000     0.955550000000     0.102214   
H215     H      0.488130000000     0.368690000000     0.507180000000     0.00349458 
H216     H      0.448940000000     0.251410000000     0.560990000000     0.0648565  
H217     H      0.493210000000     0.311140000000     0.577890000000     0.0554895  
H218     H      0.244780000000     0.497190000000     0.569830000000     0.0959419  
H219     H      0.300180000000     0.491840000000     0.629470000000     0.0532159  
H220     H      0.352380000000     0.440510000000     0.611180000000     0.0569407  
H221     H      0.255680000000     0.528410000000     0.023000000000     0.111172   
H222     H      0.308210000000     0.478750000000     0.999150000000     0.01064    
H223     H      0.349240000000     0.518520000000     0.622540000000     0.0601742  
H224     H      0.369990000000     0.471040000000     0.066330000000     0.0500045  
In1      In     0.318080000000     0.315760000000     0.537450000000     2.42957    
In2      In     0.335190000000     0.649250000000     0.551160000000     2.41662    
In3      In     0.651040000000     0.333710000000     0.529400000000     2.42626    
In4      In     0.670970000000     0.670230000000     0.528740000000     2.41594    
In5      In     0.813220000000     0.166710000000     0.280500000000     2.41947    
In6      In     0.843210000000     0.831160000000     0.279010000000     2.42373    
In7      In     0.181950000000     0.826420000000     0.298780000000     2.4168     
In8      In     0.149940000000     0.157910000000     0.294840000000     2.44001    
In9      In     0.318080000000     0.315760000000     0.037460000000     2.4294     
In10     In     0.335180000000     0.649250000000     0.051160000000     2.41681    
In11     In     0.651040000000     0.333710000000     0.029400000000     2.42633    
In12     In     0.670970000000     0.670230000000     0.028740000000     2.41549    
In13     In     0.813220000000     0.166710000000     0.780500000000     2.41948    
In14     In     0.843200000000     0.831160000000     0.779020000000     2.42379    
In15     In     0.181950000000     0.826420000000     0.798780000000     2.4167     
In16     In     0.149940000000     0.157910000000     0.794840000000     2.4401     
N1       N      0.169790000000     0.032060000000     0.294300000000    -0.191375   
N2       N      0.202120000000     0.951600000000     0.306850000000    -0.15185    
N3       N      0.969520000000     0.812880000000     0.279000000000    -0.192358   
N4       N      0.054630000000     0.830440000000     0.292230000000    -0.154629   
N5       N      0.805960000000     0.039410000000     0.286240000000    -0.194421   
N6       N      0.837440000000     0.958330000000     0.276870000000    -0.151869   
N7       N      0.022750000000     0.164640000000     0.288310000000    -0.192927   
N8       N      0.938760000000     0.186000000000     0.274260000000    -0.152325   
N9       N      0.782000000000     0.776700000000     0.379470000000    -0.193378   
N10      N      0.724160000000     0.729320000000     0.426520000000    -0.153391   
N11      N      0.785850000000     0.777450000000     0.175920000000    -0.192069   
N12      N      0.734140000000     0.724820000000     0.127310000000    -0.152796   
N13      N      0.707780000000     0.273190000000     0.430840000000    -0.193091   
N14      N      0.763180000000     0.223090000000     0.384700000000    -0.152094   
N15      N      0.711470000000     0.288870000000     0.135770000000    -0.190518   
N16      N      0.750810000000     0.224570000000     0.182120000000    -0.152863   
N17      N      0.655790000000     0.460990000000     0.533930000000    -0.190723   
N18      N      0.684110000000     0.543780000000     0.033490000000    -0.152848   
N19      N      0.292200000000     0.711490000000     0.444890000000    -0.190586   
N20      N      0.234790000000     0.759470000000     0.397080000000    -0.153954   
N21      N      0.280940000000     0.713190000000     0.148970000000    -0.193883   
N22      N      0.235300000000     0.772450000000     0.194960000000    -0.152503   
N23      N      0.462190000000     0.645200000000     0.039400000000    -0.19226    
N24      N      0.543640000000     0.676440000000     0.531310000000    -0.153558   
N25      N      0.196240000000     0.211530000000     0.402840000000    -0.190923   
N26      N      0.262430000000     0.256800000000     0.437330000000    -0.15041    
N27      N      0.214380000000     0.228570000000     0.208250000000    -0.193187   
N28      N      0.256260000000     0.257890000000     0.134950000000    -0.152048   
N29      N      0.525270000000     0.314930000000     0.018880000000    -0.189875   
N30      N      0.440320000000     0.295610000000     0.509080000000    -0.152474   
N31      N      0.311560000000     0.441760000000     0.055730000000    -0.19209    
N32      N      0.303350000000     0.527470000000     0.572300000000    -0.151136   
N33      N      0.169790000000     0.032060000000     0.794300000000    -0.191374   
N34      N      0.202120000000     0.951590000000     0.806850000000    -0.151878   
N35      N      0.969520000000     0.812880000000     0.779000000000    -0.192299   
N36      N      0.054630000000     0.830440000000     0.792230000000    -0.154636   
N37      N      0.805960000000     0.039410000000     0.786240000000    -0.194408   
N38      N      0.837440000000     0.958330000000     0.776880000000    -0.151878   
N39      N      0.022750000000     0.164640000000     0.788310000000    -0.192941   
N40      N      0.938760000000     0.186000000000     0.774260000000    -0.152332   
N41      N      0.782000000000     0.776700000000     0.879470000000    -0.193393   
N42      N      0.724160000000     0.729320000000     0.926520000000    -0.153327   
N43      N      0.785850000000     0.777450000000     0.675920000000    -0.191958   
N44      N      0.734140000000     0.724820000000     0.627310000000    -0.15277    
N45      N      0.707780000000     0.273190000000     0.930840000000    -0.193081   
N46      N      0.763180000000     0.223090000000     0.884700000000    -0.152097   
N47      N      0.711470000000     0.288870000000     0.635770000000    -0.190555   
N48      N      0.750810000000     0.224570000000     0.682120000000    -0.152866   
N49      N      0.655790000000     0.460990000000     0.033930000000    -0.190797   
N50      N      0.684110000000     0.543780000000     0.533490000000    -0.15275    
N51      N      0.292200000000     0.711490000000     0.944890000000    -0.190603   
N52      N      0.234790000000     0.759480000000     0.897080000000    -0.154001   
N53      N      0.280940000000     0.713190000000     0.648970000000    -0.193894   
N54      N      0.235300000000     0.772450000000     0.694960000000    -0.152517   
N55      N      0.462190000000     0.645200000000     0.539400000000    -0.192175   
N56      N      0.543640000000     0.676440000000     0.031310000000    -0.153598   
N57      N      0.196240000000     0.211530000000     0.902840000000    -0.190901   
N58      N      0.262430000000     0.256800000000     0.937330000000    -0.150452   
N59      N      0.214380000000     0.228570000000     0.708250000000    -0.193186   
N60      N      0.256260000000     0.257890000000     0.634950000000    -0.152045   
N61      N      0.525280000000     0.314930000000     0.518880000000    -0.189825   
N62      N      0.440320000000     0.295610000000     0.009080000000    -0.152569   
N63      N      0.311560000000     0.441760000000     0.555730000000    -0.192114   
N64      N      0.303350000000     0.527470000000     0.072300000000    -0.151182   
O1       O      0.258450000000     0.298590000000     0.073620000000    -0.498912   
O2       O      0.316480000000     0.280020000000     0.101300000000    -0.484499   
O3       O      0.276600000000     0.315230000000     0.477690000000    -0.471804   
O4       O      0.293430000000     0.380750000000     0.521140000000    -0.448737   
O5       O      0.381690000000     0.285760000000     0.050520000000    -0.484983   
O6       O      0.335040000000     0.375510000000     0.074220000000    -0.506386   
O7       O      0.306030000000     0.258270000000     0.496480000000    -0.498316   
O8       O      0.376300000000     0.326950000000     0.496870000000    -0.497361   
O9       O      0.302600000000     0.651600000000     0.485710000000    -0.434892   
O10      O      0.326060000000     0.708600000000     0.510630000000    -0.495224   
O11      O      0.280110000000     0.664110000000     0.095030000000    -0.507537   
O12      O      0.342620000000     0.586430000000     0.086380000000    -0.492257   
O13      O      0.394880000000     0.641260000000     0.511520000000    -0.451341   
O14      O      0.296890000000     0.590660000000     0.536760000000    -0.467831   
O15      O      0.336060000000     0.698540000000     0.103870000000    -0.446129   
O16      O      0.401520000000     0.652210000000     0.078220000000    -0.486734   
O17      O      0.651870000000     0.305200000000     0.096640000000    -0.437392   
O18      O      0.710410000000     0.319120000000     0.068200000000    -0.495622   
O19      O      0.659490000000     0.277060000000     0.485510000000    -0.503331   
O20      O      0.590370000000     0.300830000000     0.548180000000    -0.475623   
O21      O      0.651970000000     0.395600000000     0.066190000000    -0.450574   
O22      O      0.587250000000     0.346150000000     0.998250000000    -0.453088   
O23      O      0.699200000000     0.329310000000     0.476140000000    -0.447862   
O24      O      0.655700000000     0.398120000000     0.498350000000    -0.479521   
O25      O      0.727880000000     0.676420000000     0.073110000000    -0.491684   
O26      O      0.677860000000     0.719450000000     0.080910000000    -0.489819   
O27      O      0.716570000000     0.673530000000     0.473000000000    -0.491851   
O28      O      0.677230000000     0.606510000000     0.497300000000    -0.48982    
O29      O      0.608790000000     0.676730000000     0.063450000000    -0.493681   
O30      O      0.677290000000     0.608240000000     0.065440000000    -0.489474   
O31      O      0.678150000000     0.726640000000     0.483330000000    -0.492233   
O32      O      0.606500000000     0.670900000000     0.495690000000    -0.49287    
O33      O      0.753160000000     0.185750000000     0.244810000000    -0.489625   
O34      O      0.811020000000     0.204500000000     0.217910000000    -0.492372   
O35      O      0.769530000000     0.167670000000     0.338210000000    -0.488703   
O36      O      0.795340000000     0.103230000000     0.252390000000    -0.457557   
O37      O      0.875020000000     0.190420000000     0.308000000000    -0.485079   
O38      O      0.823110000000     0.103760000000     0.314340000000    -0.505886   
O39      O      0.806540000000     0.221710000000     0.325950000000    -0.486974   
O40      O      0.876290000000     0.161290000000     0.246910000000    -0.487484   
O41      O      0.788060000000     0.823290000000     0.232720000000    -0.49309    
O42      O      0.841000000000     0.784460000000     0.223850000000    -0.444561   
O43      O      0.796250000000     0.832630000000     0.334260000000    -0.45284    
O44      O      0.904770000000     0.811710000000     0.311390000000    -0.497022   
O45      O      0.828280000000     0.893510000000     0.246400000000    -0.484048   
O46      O      0.907200000000     0.833390000000     0.246980000000    -0.447506   
O47      O      0.828730000000     0.775980000000     0.323400000000    -0.498716   
O48      O      0.852620000000     0.895210000000     0.310000000000    -0.489475   
O49      O      0.192630000000     0.765710000000     0.336860000000    -0.494525   
O50      O      0.223670000000     0.820380000000     0.358500000000    -0.493475   
O51      O      0.180660000000     0.782200000000     0.241720000000    -0.492919   
O52      O      0.120350000000     0.839720000000     0.263760000000    -0.496734   
O53      O      0.180180000000     0.888290000000     0.334380000000    -0.495124   
O54      O      0.116870000000     0.814840000000     0.326990000000    -0.495548   
O55      O      0.236570000000     0.816610000000     0.253150000000    -0.487858   
O56      O      0.205660000000     0.888570000000     0.271530000000    -0.482723   
O57      O      0.210430000000     0.180430000000     0.263790000000    -0.450183   
O58      O      0.153270000000     0.202290000000     0.236960000000    -0.501253   
O59      O      0.187880000000     0.155870000000     0.356820000000    -0.442795   
O60      O      0.086420000000     0.175000000000     0.322150000000    -0.452714   
O61      O      0.172150000000     0.097770000000     0.262460000000    -0.447809   
O62      O      0.087350000000     0.148520000000     0.259980000000    -0.500142   
O63      O      0.156330000000     0.212480000000     0.340910000000    -0.488952   
O64      O      0.147400000000     0.093200000000     0.325290000000    -0.493789   
O65      O      0.258450000000     0.298590000000     0.573620000000    -0.498848   
O66      O      0.316480000000     0.280020000000     0.601300000000    -0.484394   
O67      O      0.276600000000     0.315230000000     0.977690000000    -0.47158    
O68      O      0.293430000000     0.380740000000     0.021140000000    -0.448797   
O69      O      0.381690000000     0.285760000000     0.550520000000    -0.485032   
O70      O      0.335040000000     0.375510000000     0.574220000000    -0.506345   
O71      O      0.306030000000     0.258270000000     0.996480000000    -0.498099   
O72      O      0.376300000000     0.326950000000     0.996870000000    -0.497046   
O73      O      0.302600000000     0.651600000000     0.985710000000    -0.434918   
O74      O      0.326060000000     0.708600000000     0.010630000000    -0.4954     
O75      O      0.280110000000     0.664110000000     0.595030000000    -0.507413   
O76      O      0.342630000000     0.586420000000     0.586380000000    -0.492087   
O77      O      0.394880000000     0.641260000000     0.011530000000    -0.451504   
O78      O      0.296890000000     0.590660000000     0.036760000000    -0.467978   
O79      O      0.336060000000     0.698540000000     0.603870000000    -0.446117   
O80      O      0.401520000000     0.652210000000     0.578220000000    -0.486784   
O81      O      0.651870000000     0.305200000000     0.596650000000    -0.437314   
O82      O      0.710410000000     0.319120000000     0.568210000000    -0.495632   
O83      O      0.659490000000     0.277060000000     0.985510000000    -0.503257   
O84      O      0.590370000000     0.300830000000     0.048170000000    -0.475655   
O85      O      0.651970000000     0.395610000000     0.566190000000    -0.450499   
O86      O      0.587250000000     0.346150000000     0.498250000000    -0.453172   
O87      O      0.699200000000     0.329310000000     0.976140000000    -0.447802   
O88      O      0.655700000000     0.398120000000     0.998360000000    -0.479545   
O89      O      0.727870000000     0.676410000000     0.573110000000    -0.491726   
O90      O      0.677860000000     0.719460000000     0.580910000000    -0.489689   
O91      O      0.716570000000     0.673520000000     0.973000000000    -0.491606   
O92      O      0.677230000000     0.606510000000     0.997300000000    -0.489593   
O93      O      0.608790000000     0.676730000000     0.563450000000    -0.493698   
O94      O      0.677290000000     0.608240000000     0.565440000000    -0.489576   
O95      O      0.678150000000     0.726640000000     0.983330000000    -0.492119   
O96      O      0.606500000000     0.670910000000     0.995690000000    -0.492631   
O97      O      0.753160000000     0.185750000000     0.744810000000    -0.489622   
O98      O      0.811020000000     0.204500000000     0.717910000000    -0.492367   
O99      O      0.769530000000     0.167670000000     0.838210000000    -0.488698   
O100     O      0.795340000000     0.103230000000     0.752390000000    -0.457556   
O101     O      0.875020000000     0.190420000000     0.808000000000    -0.485075   
O102     O      0.823110000000     0.103760000000     0.814340000000    -0.505878   
O103     O      0.806540000000     0.221710000000     0.825950000000    -0.486971   
O104     O      0.876290000000     0.161290000000     0.746910000000    -0.487479   
O105     O      0.788060000000     0.823290000000     0.732720000000    -0.493011   
O106     O      0.841010000000     0.784460000000     0.723850000000    -0.444449   
O107     O      0.796250000000     0.832630000000     0.834260000000    -0.453039   
O108     O      0.904770000000     0.811710000000     0.811390000000    -0.497073   
O109     O      0.828280000000     0.893510000000     0.746400000000    -0.484011   
O110     O      0.907190000000     0.833390000000     0.746980000000    -0.447361   
O111     O      0.828730000000     0.775980000000     0.823400000000    -0.498812   
O112     O      0.852620000000     0.895210000000     0.810000000000    -0.489508   
O113     O      0.192630000000     0.765710000000     0.836870000000    -0.494555   
O114     O      0.223670000000     0.820380000000     0.858500000000    -0.493518   
O115     O      0.180660000000     0.782200000000     0.741720000000    -0.492903   
O116     O      0.120350000000     0.839710000000     0.763760000000    -0.49678    
O117     O      0.180180000000     0.888290000000     0.834380000000    -0.495046   
O118     O      0.116870000000     0.814840000000     0.826990000000    -0.495548   
O119     O      0.236570000000     0.816610000000     0.753150000000    -0.487857   
O120     O      0.205660000000     0.888570000000     0.771520000000    -0.482591   
O121     O      0.210430000000     0.180430000000     0.763790000000    -0.450183   
O122     O      0.153270000000     0.202290000000     0.736960000000    -0.50125    
O123     O      0.187880000000     0.155870000000     0.856820000000    -0.442764   
O124     O      0.086420000000     0.175000000000     0.822150000000    -0.452714   
O125     O      0.172150000000     0.097770000000     0.762460000000    -0.447813   
O126     O      0.087350000000     0.148520000000     0.759980000000    -0.500146   
O127     O      0.156330000000     0.212480000000     0.840900000000    -0.488949   
O128     O      0.147400000000     0.093200000000     0.825290000000    -0.493793   


