data_structure

_audit_creation_method RASPA-1.0
_audit_creation_date 2023-6-5
_audit_author_name 'Poobodin Mano'

_cell_length_a    31.5365
_cell_length_b    31.7321
_cell_length_c    32.5857
_cell_angle_alpha 89.5525
_cell_angle_beta  90.4475
_cell_angle_gamma 89.999
_cell_volume      32607.2

_symmetry_cell_setting          triclinic
_symmetry_space_group_name_Hall 'P 1'
_symmetry_space_group_name_H-M  'P 1'
_symmetry_Int_Tables_number     1

_symmetry_equiv_pos_as_xyz 'x,y,z'

loop_
_atom_site_label
_atom_site_type_symbol
_atom_site_fract_x
_atom_site_fract_y
_atom_site_fract_z
_atom_site_charge
C1       C      0.313510000000     0.403330000000     0.034360000000     0.419542   
C2       C      0.294130000000     0.282990000000     0.449590000000     0.418626   
C3       C      0.412170000000     0.317750000000     0.508440000000     0.416395   
C4       C      0.285960000000     0.283690000000     0.079970000000     0.406313   
C5       C      0.321880000000     0.574220000000     0.522210000000     0.405513   
C6       C      0.285850000000     0.702150000000     0.072560000000     0.412253   
C7       C      0.411100000000     0.670380000000     0.009990000000     0.419127   
C8       C      0.293100000000     0.685540000000     0.441030000000     0.403032   
C9       C      0.589680000000     0.330130000000     0.008560000000     0.399504   
C10      C      0.715460000000     0.295140000000     0.449810000000     0.419255   
C11      C      0.683320000000     0.422530000000     0.509080000000     0.427033   
C12      C      0.714300000000     0.298680000000     0.074010000000     0.408181   
C13      C      0.665330000000     0.594510000000     0.012000000000     0.405228   
C14      C      0.710700000000     0.725020000000     0.463290000000     0.419323   
C15      C      0.581820000000     0.693460000000     0.509560000000     0.406879   
C16      C      0.699100000000     0.705550000000     0.090780000000     0.403522   
C17      C      0.823900000000     0.087780000000     0.265120000000     0.419648   
C18      C      0.793380000000     0.197130000000     0.336850000000     0.406773   
C19      C      0.914090000000     0.184420000000     0.254700000000     0.404941   
C20      C      0.789480000000     0.220510000000     0.207980000000     0.419871   
C21      C      0.917680000000     0.817180000000     0.258280000000     0.418245   
C22      C      0.799310000000     0.803890000000     0.340380000000     0.403827   
C23      C      0.836050000000     0.914610000000     0.264680000000     0.409479   
C24      C      0.788400000000     0.784240000000     0.213510000000     0.418211   
C25      C      0.089840000000     0.829890000000     0.259610000000     0.407247   
C26      C      0.197690000000     0.786960000000     0.189860000000     0.416201   
C27      C      0.200570000000     0.903330000000     0.278320000000     0.405515   
C28      C      0.213480000000     0.774470000000     0.318300000000     0.418048   
C29      C      0.086700000000     0.166160000000     0.266200000000     0.429145   
C30      C      0.216920000000     0.198300000000     0.321320000000     0.411339   
C31      C      0.188690000000     0.072210000000     0.270540000000     0.42048    
C32      C      0.203580000000     0.187480000000     0.192930000000     0.422159   
C33      C      0.196290000000     0.966960000000     0.321490000000    -0.0111349  
C34      C      0.244250000000     0.965920000000     0.261930000000    -0.0370542  
C35      C      0.173590000000     0.006090000000     0.305370000000    -0.00887049 
C36      C      0.225700000000     0.007430000000     0.244610000000     0.0937549  
C37      C      0.022500000000     0.825980000000     0.297400000000    -0.0106341  
C38      C      0.023070000000     0.847800000000     0.223040000000    -0.0352715  
C39      C      0.985990000000     0.795860000000     0.288700000000    -0.0104764  
C40      C      0.984160000000     0.819000000000     0.215000000000     0.0945044  
C41      C      0.854800000000     0.982270000000     0.297100000000    -0.010968   
C42      C      0.832830000000     0.979930000000     0.223010000000    -0.0354209  
C43      C      0.826680000000     0.020790000000     0.303460000000    -0.0105119  
C44      C      0.805440000000     0.019940000000     0.228900000000     0.0953031  
C45      C      0.980770000000     0.165560000000     0.219650000000    -0.0129895  
C46      C      0.981030000000     0.220320000000     0.273920000000    -0.0387436  
C47      C      0.017380000000     0.142720000000     0.241170000000    -0.00876593 
C48      C      0.019400000000     0.199250000000     0.295430000000     0.0955081  
C49      C      0.803770000000     0.760010000000     0.403310000000    -0.011345   
C50      C      0.748050000000     0.815170000000     0.396280000000    -0.0345285  
C51      C      0.771070000000     0.727450000000     0.416780000000    -0.00976731 
C52      C      0.713760000000     0.784060000000     0.411990000000     0.094587   
C53      C      0.695990000000     0.753590000000     0.150000000000    -0.0112712  
C54      C      0.746430000000     0.693260000000     0.150660000000    -0.0346785  
C55      C      0.731030000000     0.783930000000     0.162680000000    -0.00980533 
C56      C      0.782610000000     0.722120000000     0.166740000000     0.0945093  
C57      C      0.729300000000     0.207140000000     0.379240000000    -0.0116581  
C58      C      0.800340000000     0.228850000000     0.405670000000    -0.035376   
C59      C      0.711320000000     0.250770000000     0.388450000000    -0.0103685  
C60      C      0.783290000000     0.273390000000     0.415500000000     0.0953933  
C61      C      0.725650000000     0.234500000000     0.115840000000    -0.0115136  
C62      C      0.775900000000     0.295720000000     0.121100000000    -0.0359498  
C63      C      0.727590000000     0.228710000000     0.162330000000    -0.00961339 
C64      C      0.779440000000     0.288510000000     0.168120000000     0.0953361  
C65      C      0.649930000000     0.524550000000     0.042260000000    -0.0109619  
C66      C      0.673310000000     0.531100000000     0.469030000000    -0.0378283  
C67      C      0.680850000000     0.487990000000     0.048590000000    -0.0124541  
C68      C      0.703520000000     0.493400000000     0.475480000000     0.0946077  
C69      C      0.301750000000     0.724680000000     0.375770000000    -0.0120313  
C70      C      0.237210000000     0.681290000000     0.387520000000    -0.0351815  
C71      C      0.274920000000     0.762570000000     0.363080000000    -0.00903959 
C72      C      0.208400000000     0.717850000000     0.372150000000     0.0952224  
C73      C      0.247510000000     0.701800000000     0.138330000000    -0.0113829  
C74      C      0.270030000000     0.770250000000     0.105210000000    -0.0353006  
C75      C      0.205230000000     0.721910000000     0.149760000000    -0.0111736  
C76      C      0.227260000000     0.790190000000     0.117760000000     0.0944914  
C77      C      0.513680000000     0.717770000000     0.038150000000    -0.0118125  
C78      C      0.517600000000     0.694590000000     0.465520000000    -0.034936   
C79      C      0.477010000000     0.687630000000     0.046340000000    -0.00943606 
C80      C      0.479670000000     0.664270000000     0.471810000000     0.0955556  
C81      C      0.268270000000     0.196200000000     0.378810000000    -0.0105821  
C82      C      0.252700000000     0.263970000000     0.342280000000    -0.0338877  
C83      C      0.265970000000     0.218020000000     0.420200000000    -0.00976784 
C84      C      0.252890000000     0.287880000000     0.383650000000     0.0950449  
C85      C      0.288610000000     0.237890000000     0.141560000000    -0.0120399  
C86      C      0.220360000000     0.272890000000     0.119870000000    -0.0363803  
C87      C      0.265010000000     0.196350000000     0.147590000000    -0.00951236 
C88      C      0.196470000000     0.230910000000     0.127580000000     0.0959331  
C89      C      0.522720000000     0.337690000000     0.470170000000    -0.0096207  
C90      C      0.523700000000     0.316780000000     0.546060000000    -0.032837   
C91      C      0.476110000000     0.348460000000     0.978250000000    -0.00171942 
C92      C      0.480930000000     0.295120000000     0.037680000000     0.0947581  
C93      C      0.295320000000     0.506230000000     0.496620000000    -0.0118071  
C94      C      0.351250000000     0.508980000000     0.052670000000    -0.0346565  
C95      C      0.274760000000     0.468930000000     0.518610000000    -0.00971318 
C96      C      0.330300000000     0.470210000000     0.073390000000     0.0940679  
C97      C      0.313510000000     0.403340000000     0.534360000000     0.420121   
C98      C      0.294130000000     0.282990000000     0.949590000000     0.418192   
C99      C      0.412170000000     0.317750000000     0.008450000000     0.41239    
C100     C      0.285960000000     0.283690000000     0.579970000000     0.406398   
C101     C      0.321880000000     0.574220000000     0.022210000000     0.401631   
C102     C      0.285850000000     0.702150000000     0.572560000000     0.412683   
C103     C      0.411100000000     0.670370000000     0.509990000000     0.423097   
C104     C      0.293100000000     0.685540000000     0.941030000000     0.402546   
C105     C      0.589680000000     0.330130000000     0.508560000000     0.403465   
C106     C      0.715460000000     0.295140000000     0.949810000000     0.418853   
C107     C      0.683330000000     0.422530000000     0.009080000000     0.422923   
C108     C      0.714300000000     0.298690000000     0.574010000000     0.408453   
C109     C      0.665330000000     0.594510000000     0.512000000000     0.409233   
C110     C      0.710700000000     0.725020000000     0.963300000000     0.418474   
C111     C      0.581820000000     0.693460000000     0.009560000000     0.403002   
C112     C      0.699100000000     0.705550000000     0.590780000000     0.403543   
C113     C      0.823900000000     0.087780000000     0.765120000000     0.419393   
C114     C      0.793380000000     0.197130000000     0.836850000000     0.406644   
C115     C      0.914090000000     0.184420000000     0.754700000000     0.404959   
C116     C      0.789470000000     0.220510000000     0.707980000000     0.419561   
C117     C      0.917670000000     0.817180000000     0.758280000000     0.418267   
C118     C      0.799310000000     0.803890000000     0.840370000000     0.403815   
C119     C      0.836040000000     0.914610000000     0.764680000000     0.409472   
C120     C      0.788400000000     0.784240000000     0.713510000000     0.418495   
C121     C      0.089840000000     0.829890000000     0.759610000000     0.407169   
C122     C      0.197690000000     0.786960000000     0.689860000000     0.416225   
C123     C      0.200570000000     0.903330000000     0.778320000000     0.405623   
C124     C      0.213480000000     0.774470000000     0.818310000000     0.418212   
C125     C      0.086700000000     0.166160000000     0.766200000000     0.429384   
C126     C      0.216920000000     0.198300000000     0.821330000000     0.411349   
C127     C      0.188690000000     0.072210000000     0.770550000000     0.420488   
C128     C      0.203580000000     0.187480000000     0.692930000000     0.422187   
C129     C      0.196290000000     0.966950000000     0.821480000000    -0.0110252  
C130     C      0.244250000000     0.965930000000     0.761930000000    -0.0371245  
C131     C      0.173590000000     0.006090000000     0.805370000000    -0.00892358 
C132     C      0.225700000000     0.007430000000     0.744620000000     0.093833   
C133     C      0.022500000000     0.825980000000     0.797400000000    -0.0106808  
C134     C      0.023070000000     0.847800000000     0.723040000000    -0.0352889  
C135     C      0.985990000000     0.795860000000     0.788700000000    -0.0104827  
C136     C      0.984160000000     0.818990000000     0.715000000000     0.0945016  
C137     C      0.854800000000     0.982270000000     0.797100000000    -0.0109798  
C138     C      0.832830000000     0.979920000000     0.723010000000    -0.0354436  
C139     C      0.826680000000     0.020790000000     0.803460000000    -0.0105114  
C140     C      0.805440000000     0.019940000000     0.728900000000     0.0953064  
C141     C      0.980770000000     0.165560000000     0.719650000000    -0.0130063  
C142     C      0.981030000000     0.220320000000     0.773920000000    -0.0387758  
C143     C      0.017380000000     0.142720000000     0.741170000000    -0.00878171 
C144     C      0.019400000000     0.199250000000     0.795430000000     0.0955707  
C145     C      0.803770000000     0.760010000000     0.903310000000    -0.0113286  
C146     C      0.748050000000     0.815160000000     0.896290000000    -0.0345658  
C147     C      0.771070000000     0.727450000000     0.916770000000    -0.00983693 
C148     C      0.713770000000     0.784060000000     0.911990000000     0.0946523  
C149     C      0.695990000000     0.753590000000     0.650000000000    -0.0112394  
C150     C      0.746430000000     0.693270000000     0.650660000000    -0.0346737  
C151     C      0.731040000000     0.783930000000     0.662680000000    -0.00973196 
C152     C      0.782600000000     0.722120000000     0.666740000000     0.0944958  
C153     C      0.729310000000     0.207140000000     0.879240000000    -0.011621   
C154     C      0.800340000000     0.228850000000     0.905670000000    -0.035467   
C155     C      0.711320000000     0.250770000000     0.888450000000    -0.0103421  
C156     C      0.783290000000     0.273390000000     0.915500000000     0.0954761  
C157     C      0.725650000000     0.234500000000     0.615840000000    -0.0115495  
C158     C      0.775900000000     0.295720000000     0.621100000000    -0.0359863  
C159     C      0.727590000000     0.228710000000     0.662330000000    -0.00956215 
C160     C      0.779440000000     0.288510000000     0.668120000000     0.0953544  
C161     C      0.649930000000     0.524560000000     0.542260000000    -0.0106786  
C162     C      0.673310000000     0.531090000000     0.969030000000    -0.0361013  
C163     C      0.680850000000     0.487990000000     0.548590000000    -0.012176   
C164     C      0.703510000000     0.493400000000     0.975480000000     0.0960658  
C165     C      0.301750000000     0.724690000000     0.875770000000    -0.0120549  
C166     C      0.237210000000     0.681280000000     0.887520000000    -0.0353035  
C167     C      0.274920000000     0.762570000000     0.863080000000    -0.00903112 
C168     C      0.208400000000     0.717850000000     0.872150000000     0.0952824  
C169     C      0.247510000000     0.701800000000     0.638330000000    -0.0113112  
C170     C      0.270030000000     0.770250000000     0.605210000000    -0.0352804  
C171     C      0.205230000000     0.721910000000     0.649760000000    -0.0112163  
C172     C      0.227260000000     0.790190000000     0.617760000000     0.0945074  
C173     C      0.513690000000     0.717770000000     0.538150000000    -0.0115556  
C174     C      0.517600000000     0.694590000000     0.965520000000    -0.0331943  
C175     C      0.477010000000     0.687630000000     0.546340000000    -0.00913035 
C176     C      0.479670000000     0.664270000000     0.971810000000     0.0970048  
C177     C      0.268270000000     0.196200000000     0.878810000000    -0.010529   
C178     C      0.252700000000     0.263970000000     0.842290000000    -0.0338581  
C179     C      0.265970000000     0.218020000000     0.920200000000    -0.00985808 
C180     C      0.252890000000     0.287880000000     0.883650000000     0.0950403  
C181     C      0.288610000000     0.237890000000     0.641560000000    -0.0119876  
C182     C      0.220360000000     0.272890000000     0.619870000000    -0.036373   
C183     C      0.265010000000     0.196350000000     0.647580000000    -0.0095413  
C184     C      0.196470000000     0.230910000000     0.627580000000     0.0959514  
C185     C      0.522730000000     0.337690000000     0.970170000000    -0.00785379 
C186     C      0.523700000000     0.316790000000     0.046060000000    -0.0332183  
C187     C      0.476110000000     0.348460000000     0.478250000000    -0.00319355 
C188     C      0.480930000000     0.295120000000     0.537680000000     0.0952446  
C189     C      0.295320000000     0.506230000000     0.996620000000    -0.0058757  
C190     C      0.351250000000     0.508980000000     0.552670000000    -0.0347889  
C191     C      0.274760000000     0.468930000000     0.018610000000    -0.0165919  
C192     C      0.330310000000     0.470210000000     0.573390000000     0.0944494  
H1       H      0.143530000000     0.996120000000     0.290240000000     0.0461739  
H2       H      0.174100000000     0.947930000000     0.340430000000     0.054507   
H3       H      0.204610000000     0.998530000000     0.218470000000     0.0434049  
H4       H      0.256090000000     0.946490000000     0.236160000000     0.0754659  
H5       H      0.164760000000     0.025520000000     0.332260000000     0.0567106  
H6       H      0.222980000000     0.977170000000     0.341590000000     0.0501609  
H7       H      0.272020000000     0.973430000000     0.281880000000     0.066724   
H8       H      0.999570000000     0.764680000000     0.280630000000     0.0538181  
H9       H      0.042270000000     0.812780000000     0.322810000000     0.0604723  
H10      H      0.997230000000     0.787850000000     0.205790000000     0.0429093  
H11      H      0.043310000000     0.848650000000     0.195260000000     0.0765852  
H12      H      0.967350000000     0.791480000000     0.317220000000     0.0604929  
H13      H      0.009070000000     0.856440000000     0.307870000000     0.0487198  
H14      H      0.012220000000     0.880500000000     0.228910000000     0.0671104  
H15      H      0.795170000000     0.009720000000     0.314190000000     0.0486595  
H16      H      0.856050000000     0.963590000000     0.326100000000     0.0548827  
H17      H      0.773000000000     0.008640000000     0.236690000000     0.0403582  
H18      H      0.817670000000     0.959540000000     0.199490000000     0.0800053  
H19      H      0.840840000000     0.040110000000     0.328370000000     0.0550287  
H20      H      0.887490000000     0.993340000000     0.290340000000     0.0480483  
H21      H      0.864620000000     0.989000000000     0.211420000000     0.0723726  
H22      H      0.003810000000     0.118120000000     0.261720000000     0.0455718  
H23      H      0.960780000000     0.142200000000     0.203170000000     0.0602792  
H24      H      0.005940000000     0.178340000000     0.319690000000     0.0393355  
H25      H      0.961190000000     0.236170000000     0.297280000000     0.0780705  
H26      H      0.035970000000     0.126130000000     0.217370000000     0.0589297  
H27      H      0.994220000000     0.187670000000     0.196530000000     0.0598802  
H28      H      0.992850000000     0.245130000000     0.252590000000     0.0758283  
H29      H      0.761510000000     0.708710000000     0.389530000000     0.0519344  
H30      H      0.830030000000     0.743730000000     0.387290000000     0.0599824  
H31      H      0.697340000000     0.771440000000     0.384310000000     0.0407708  
H32      H      0.733230000000     0.838000000000     0.374450000000     0.0761603  
H33      H      0.786690000000     0.705470000000     0.438940000000     0.058538   
H34      H      0.817230000000     0.775080000000     0.431230000000     0.0512472  
H35      H      0.761020000000     0.833540000000     0.422420000000     0.0706704  
H36      H      0.743820000000     0.799240000000     0.134570000000     0.0522329  
H37      H      0.672000000000     0.770960000000     0.131270000000     0.0589789  
H38      H      0.801890000000     0.731140000000     0.139570000000     0.0424114  
H39      H      0.760210000000     0.668040000000     0.131370000000     0.0766225  
H40      H      0.716590000000     0.809070000000     0.181610000000     0.0583609  
H41      H      0.680140000000     0.741810000000     0.178220000000     0.0504824  
H42      H      0.730470000000     0.677590000000     0.176950000000     0.0708869  
H43      H      0.712580000000     0.269970000000     0.359790000000     0.0501923  
H44      H      0.712060000000     0.193520000000     0.352580000000     0.0553845  
H45      H      0.789850000000     0.293520000000     0.388100000000     0.045725   
H46      H      0.834580000000     0.230750000000     0.398060000000     0.0812915  
H47      H      0.677350000000     0.247240000000     0.396660000000     0.0585202  
H48      H      0.723590000000     0.186430000000     0.406330000000     0.0502128  
H49      H      0.797240000000     0.208190000000     0.433200000000     0.070038   
H50      H      0.701250000000     0.247100000000     0.175950000000     0.0482906  
H51      H      0.693600000000     0.225130000000     0.104730000000     0.0581291  
H52      H      0.754970000000     0.309070000000     0.182220000000     0.0398228  
H53      H      0.778730000000     0.330010000000     0.114370000000     0.0818971  
H54      H      0.721810000000     0.194920000000     0.169610000000     0.0608735  
H55      H      0.749180000000     0.212960000000     0.101810000000     0.0555654  
H56      H      0.802580000000     0.279710000000     0.105520000000     0.0778801  
H57      H      0.711570000000     0.501100000000     0.059620000000     0.0524243  
H58      H      0.646960000000     0.542010000000     0.071550000000     0.0554823  
H59      H      0.734190000000     0.507360000000     0.985810000000     0.0423864  
H60      H      0.687420000000     0.553300000000     0.446350000000     0.0724352  
H61      H      0.668450000000     0.467330000000     0.073440000000     0.0584202  
H62      H      0.618250000000     0.511370000000     0.534360000000     0.0476075  
H63      H      0.642880000000     0.519510000000     0.455870000000     0.0667104  
H64      H      0.270870000000     0.783090000000     0.390290000000     0.0487153  
H65      H      0.331940000000     0.735930000000     0.389720000000     0.0632811  
H66      H      0.196670000000     0.734120000000     0.400010000000     0.0395145  
H67      H      0.219960000000     0.662320000000     0.410870000000     0.0781807  
H68      H      0.292870000000     0.780960000000     0.339780000000     0.05652    
H69      H      0.309650000000     0.706640000000     0.347710000000     0.0539727  
H70      H      0.244590000000     0.660020000000     0.361590000000     0.0727269  
H71      H      0.182140000000     0.715670000000     0.124550000000     0.0490177  
H72      H      0.242230000000     0.667790000000     0.132120000000     0.056284   
H73      H      0.204770000000     0.784030000000     0.091910000000     0.0399739  
H74      H      0.280230000000     0.784230000000     0.075480000000     0.0758166  
H75      H      0.193040000000     0.706160000000     0.177880000000     0.0602924  
H76      H      0.269390000000     0.704150000000     0.165130000000     0.0509212  
H77      H      0.294770000000     0.777770000000     0.128500000000     0.0696424  
H78      H      0.490140000000     0.658240000000     0.060250000000     0.0472666  
H79      H      0.532180000000     0.722310000000     0.066960000000     0.057544   
H80      H      0.493350000000     0.632630000000     0.478820000000     0.0381334  
H81      H      0.539070000000     0.681720000000     0.441800000000     0.0782645  
H82      H      0.455980000000     0.702200000000     0.069500000000     0.0564369  
H83      H      0.500240000000     0.748820000000     0.028760000000     0.0520093  
H84      H      0.505830000000     0.725610000000     0.454170000000     0.0727588  
H85      H      0.233410000000     0.213890000000     0.432460000000     0.0511183  
H86      H      0.257870000000     0.162920000000     0.382620000000     0.0580379  
H87      H      0.219150000000     0.290820000000     0.393060000000     0.0453254  
H88      H      0.229870000000     0.279520000000     0.320840000000     0.0806759  
H89      H      0.288160000000     0.201630000000     0.441680000000     0.0577477  
H90      H      0.301910000000     0.195960000000     0.368800000000     0.051925   
H91      H      0.284550000000     0.266000000000     0.328040000000     0.0710093  
H92      H      0.266180000000     0.178650000000     0.118290000000     0.052858   
H93      H      0.321600000000     0.231060000000     0.131830000000     0.0622656  
H94      H      0.197020000000     0.213630000000     0.097920000000     0.0407894  
H95      H      0.204790000000     0.290310000000     0.094140000000     0.0785147  
H96      H      0.281970000000     0.177190000000     0.171220000000     0.064467   
H97      H      0.290250000000     0.254250000000     0.171590000000     0.0538981  
H98      H      0.218510000000     0.292930000000     0.147620000000     0.0730827  
H99      H      0.474500000000     0.380450000000     0.991860000000     0.050184   
H100     H      0.537580000000     0.364920000000     0.954060000000     0.0530989  
H101     H      0.464080000000     0.295400000000     0.067660000000     0.0467956  
H102     H      0.517750000000     0.346490000000     0.062980000000     0.0550197  
H103     H      0.458820000000     0.349990000000     0.448380000000     0.0574388  
H104     H      0.524720000000     0.310780000000     0.448710000000     0.0668763  
H105     H      0.543220000000     0.296330000000     0.566700000000     0.0702641  
H106     H      0.250730000000     0.481450000000     0.040160000000     0.0514982  
H107     H      0.270020000000     0.525290000000     0.481410000000     0.0606799  
H108     H      0.306030000000     0.483050000000     0.094650000000     0.0417422  
H109     H      0.364250000000     0.529990000000     0.076850000000     0.075917   
H110     H      0.257640000000     0.449360000000     0.495710000000     0.0635487  
H111     H      0.316380000000     0.493890000000     0.472280000000     0.0548755  
H112     H      0.378220000000     0.498620000000     0.533450000000     0.068676   
H113     H      0.143530000000     0.996120000000     0.790240000000     0.0462817  
H114     H      0.174100000000     0.947930000000     0.840430000000     0.0547018  
H115     H      0.204610000000     0.998530000000     0.718470000000     0.043504   
H116     H      0.256090000000     0.946490000000     0.736160000000     0.0755895  
H117     H      0.164760000000     0.025520000000     0.832260000000     0.0569199  
H118     H      0.222980000000     0.977170000000     0.841600000000     0.0503659  
H119     H      0.272020000000     0.973430000000     0.781880000000     0.066884   
H120     H      0.999570000000     0.764680000000     0.780630000000     0.053942   
H121     H      0.042270000000     0.812780000000     0.822810000000     0.0606693  
H122     H      0.997230000000     0.787850000000     0.705790000000     0.043018   
H123     H      0.043310000000     0.848650000000     0.695260000000     0.0767149  
H124     H      0.967350000000     0.791480000000     0.817220000000     0.0606639  
H125     H      0.009070000000     0.856430000000     0.807870000000     0.0488813  
H126     H      0.012220000000     0.880500000000     0.728900000000     0.0671996  
H127     H      0.795160000000     0.009720000000     0.814190000000     0.0488095  
H128     H      0.856050000000     0.963590000000     0.826100000000     0.0550642  
H129     H      0.773000000000     0.008640000000     0.736690000000     0.0404521  
H130     H      0.817670000000     0.959540000000     0.699490000000     0.080153   
H131     H      0.840840000000     0.040110000000     0.828370000000     0.0552136  
H132     H      0.887490000000     0.993340000000     0.790340000000     0.0481605  
H133     H      0.864620000000     0.989000000000     0.711420000000     0.0724843  
H134     H      0.003810000000     0.118120000000     0.761720000000     0.0456747  
H135     H      0.960780000000     0.142200000000     0.703170000000     0.0604359  
H136     H      0.005940000000     0.178340000000     0.819690000000     0.0394738  
H137     H      0.961190000000     0.236170000000     0.797280000000     0.0781995  
H138     H      0.035970000000     0.126130000000     0.717370000000     0.0590608  
H139     H      0.994220000000     0.187670000000     0.696530000000     0.0600504  
H140     H      0.992850000000     0.245130000000     0.752590000000     0.0759369  
H141     H      0.761510000000     0.708710000000     0.889530000000     0.0520465  
H142     H      0.830030000000     0.743720000000     0.887290000000     0.0601717  
H143     H      0.697340000000     0.771440000000     0.884310000000     0.0408248  
H144     H      0.733230000000     0.838000000000     0.874450000000     0.0762682  
H145     H      0.786690000000     0.705480000000     0.938940000000     0.0589273  
H146     H      0.817230000000     0.775080000000     0.931230000000     0.0516549  
H147     H      0.761030000000     0.833540000000     0.922420000000     0.070968   
H148     H      0.743820000000     0.799240000000     0.634570000000     0.0525277  
H149     H      0.672000000000     0.770960000000     0.631270000000     0.059205   
H150     H      0.801890000000     0.731140000000     0.639570000000     0.0426909  
H151     H      0.760210000000     0.668050000000     0.631370000000     0.0768251  
H152     H      0.716590000000     0.809080000000     0.681610000000     0.058467   
H153     H      0.680140000000     0.741810000000     0.678220000000     0.0505247  
H154     H      0.730470000000     0.677590000000     0.676950000000     0.0709169  
H155     H      0.712580000000     0.269970000000     0.859790000000     0.0502246  
H156     H      0.712060000000     0.193520000000     0.852580000000     0.0555047  
H157     H      0.789850000000     0.293520000000     0.888100000000     0.0457653  
H158     H      0.834580000000     0.230750000000     0.898050000000     0.0814892  
H159     H      0.677340000000     0.247240000000     0.896650000000     0.0587005  
H160     H      0.723590000000     0.186430000000     0.906330000000     0.0505514  
H161     H      0.797240000000     0.208190000000     0.933200000000     0.0704222  
H162     H      0.701250000000     0.247100000000     0.675950000000     0.0483297  
H163     H      0.693600000000     0.225130000000     0.604730000000     0.0584219  
H164     H      0.754970000000     0.309070000000     0.682220000000     0.039839   
H165     H      0.778730000000     0.330010000000     0.614380000000     0.0821429  
H166     H      0.721810000000     0.194920000000     0.669610000000     0.0609935  
H167     H      0.749180000000     0.212960000000     0.601810000000     0.0559739  
H168     H      0.802580000000     0.279710000000     0.605510000000     0.0782782  
H169     H      0.711570000000     0.501100000000     0.559620000000     0.052844   
H170     H      0.646960000000     0.542010000000     0.571550000000     0.0555127  
H171     H      0.734190000000     0.507360000000     0.485800000000     0.0417268  
H172     H      0.687420000000     0.553300000000     0.946350000000     0.0723687  
H173     H      0.668450000000     0.467340000000     0.573440000000     0.0584462  
H174     H      0.618250000000     0.511370000000     0.034360000000     0.0470959  
H175     H      0.642870000000     0.519510000000     0.955870000000     0.0670555  
H176     H      0.270870000000     0.783090000000     0.890290000000     0.0490697  
H177     H      0.331940000000     0.735930000000     0.889720000000     0.0635023  
H178     H      0.196670000000     0.734120000000     0.900010000000     0.0398504  
H179     H      0.219960000000     0.662320000000     0.910870000000     0.0784812  
H180     H      0.292870000000     0.780960000000     0.839780000000     0.0566427  
H181     H      0.309650000000     0.706640000000     0.847710000000     0.0540341  
H182     H      0.244590000000     0.660030000000     0.861590000000     0.0728456  
H183     H      0.182140000000     0.715670000000     0.624550000000     0.0493049  
H184     H      0.242230000000     0.667780000000     0.632120000000     0.0564278  
H185     H      0.204770000000     0.784030000000     0.591920000000     0.040295   
H186     H      0.280230000000     0.784230000000     0.575480000000     0.0761602  
H187     H      0.193040000000     0.706160000000     0.677880000000     0.0604003  
H188     H      0.269390000000     0.704150000000     0.665130000000     0.0509266  
H189     H      0.294770000000     0.777760000000     0.628500000000     0.06972    
H190     H      0.490130000000     0.658240000000     0.560250000000     0.0474983  
H191     H      0.532190000000     0.722320000000     0.566960000000     0.0576236  
H192     H      0.493340000000     0.632630000000     0.978820000000     0.0388106  
H193     H      0.539070000000     0.681720000000     0.941800000000     0.0781881  
H194     H      0.455970000000     0.702200000000     0.569500000000     0.0564803  
H195     H      0.500240000000     0.748820000000     0.528760000000     0.0526322  
H196     H      0.505830000000     0.725610000000     0.954160000000     0.0731239  
H197     H      0.233410000000     0.213890000000     0.932470000000     0.051601   
H198     H      0.257870000000     0.162920000000     0.882620000000     0.0582674  
H199     H      0.219150000000     0.290820000000     0.893060000000     0.0456009  
H200     H      0.229870000000     0.279520000000     0.820850000000     0.0807158  
H201     H      0.288160000000     0.201630000000     0.941670000000     0.0582444  
H202     H      0.301910000000     0.195960000000     0.868800000000     0.0520842  
H203     H      0.284550000000     0.266000000000     0.828040000000     0.0710483  
H204     H      0.266180000000     0.178650000000     0.618280000000     0.0531678  
H205     H      0.321600000000     0.231060000000     0.631830000000     0.0624089  
H206     H      0.197020000000     0.213630000000     0.597920000000     0.0411344  
H207     H      0.204790000000     0.290310000000     0.594140000000     0.0788013  
H208     H      0.281970000000     0.177190000000     0.671220000000     0.0645783  
H209     H      0.290250000000     0.254250000000     0.671590000000     0.0539099  
H210     H      0.218510000000     0.292930000000     0.647620000000     0.0731345  
H211     H      0.474490000000     0.380450000000     0.491860000000     0.0493816  
H212     H      0.537580000000     0.364920000000     0.454060000000     0.0529866  
H213     H      0.464080000000     0.295400000000     0.567660000000     0.0467145  
H214     H      0.517750000000     0.346490000000     0.562980000000     0.055244   
H215     H      0.458820000000     0.349990000000     0.948390000000     0.0575072  
H216     H      0.524720000000     0.310780000000     0.948710000000     0.0669291  
H217     H      0.543230000000     0.296330000000     0.066700000000     0.0701808  
H218     H      0.250730000000     0.481450000000     0.540160000000     0.0507171  
H219     H      0.270020000000     0.525290000000     0.981410000000     0.0600759  
H220     H      0.306030000000     0.483050000000     0.594650000000     0.0417433  
H221     H      0.364250000000     0.529990000000     0.576850000000     0.0760303  
H222     H      0.257640000000     0.449360000000     0.995710000000     0.0670921  
H223     H      0.316380000000     0.493890000000     0.972280000000     0.0544587  
H224     H      0.378220000000     0.498620000000     0.033450000000     0.0680308  
In1      In     0.326850000000     0.321160000000     0.517030000000     2.42793    
In2      In     0.326400000000     0.658750000000     0.513160000000     2.42136    
In3      In     0.675030000000     0.337280000000     0.510010000000     2.42781    
In4      In     0.665680000000     0.679440000000     0.518670000000     2.42044    
In5      In     0.829850000000     0.172930000000     0.265950000000     2.41526    
In6      In     0.833770000000     0.829510000000     0.268760000000     2.43105    
In7      In     0.175230000000     0.824000000000     0.261100000000     2.42576    
In8      In     0.172220000000     0.155710000000     0.263710000000     2.43114    
In9      In     0.326850000000     0.321160000000     0.017030000000     2.42077    
In10     In     0.326400000000     0.658760000000     0.013160000000     2.4121     
In11     In     0.675030000000     0.337280000000     0.010010000000     2.4186     
In12     In     0.665680000000     0.679440000000     0.018670000000     2.41088    
In13     In     0.829850000000     0.172930000000     0.765950000000     2.41503    
In14     In     0.833760000000     0.829510000000     0.768760000000     2.4311     
In15     In     0.175230000000     0.824000000000     0.761100000000     2.42582    
In16     In     0.172210000000     0.155710000000     0.763710000000     2.43131    
N1       N      0.198960000000     0.030370000000     0.275190000000    -0.166125   
N2       N      0.213020000000     0.943530000000     0.286790000000    -0.160858   
N3       N      0.262110000000     0.031980000000     0.228850000000    -0.0281801  
N4       N      0.960510000000     0.811800000000     0.253750000000    -0.169626   
N5       N      0.046730000000     0.833320000000     0.259620000000    -0.162001   
N6       N      0.957200000000     0.834850000000     0.180950000000    -0.0173527  
N7       N      0.820890000000     0.044610000000     0.264710000000    -0.170586   
N8       N      0.839080000000     0.957490000000     0.262230000000    -0.16138    
N9       N      0.802200000000     0.045240000000     0.190740000000    -0.0177536  
N10      N      0.043390000000     0.171860000000     0.266280000000    -0.167208   
N11      N      0.956790000000     0.189570000000     0.249880000000    -0.158001   
N12      N      0.044010000000     0.232990000000     0.315520000000    -0.0280273  
N13      N      0.732750000000     0.747210000000     0.434090000000    -0.169738   
N14      N      0.783300000000     0.792330000000     0.377620000000    -0.160501   
N15      N      0.681830000000     0.805950000000     0.437030000000    -0.0177172  
N16      N      0.766140000000     0.762090000000     0.184400000000    -0.168959   
N17      N      0.714400000000     0.717890000000     0.128140000000    -0.16057    
N18      N      0.810590000000     0.699200000000     0.195840000000    -0.0171476  
N19      N      0.736370000000     0.272400000000     0.420570000000    -0.169106   
N20      N      0.775130000000     0.210310000000     0.372370000000    -0.16147    
N21      N      0.805670000000     0.291910000000     0.451060000000    -0.0159685  
N22      N      0.768230000000     0.244340000000     0.179100000000    -0.170383   
N23      N      0.736190000000     0.278140000000     0.104480000000    -0.159379   
N24      N      0.821290000000     0.301450000000     0.184360000000    -0.0189966  
N25      N      0.687850000000     0.465680000000     0.509520000000    -0.167816   
N26      N      0.664220000000     0.551670000000     0.008310000000    -0.162789   
N27      N      0.710990000000     0.473180000000     0.435580000000    -0.028862   
N28      N      0.232520000000     0.749850000000     0.347960000000    -0.169536   
N29      N      0.277410000000     0.697670000000     0.403620000000    -0.159247   
N30      N      0.171150000000     0.701680000000     0.349430000000    -0.0171333  
N31      N      0.210230000000     0.767850000000     0.154320000000    -0.169975   
N32      N      0.266550000000     0.724020000000     0.103160000000    -0.163483   
N33      N      0.230330000000     0.836330000000     0.122950000000    -0.0177739  
N34      N      0.454080000000     0.676590000000     0.008110000000    -0.170849   
N35      N      0.539560000000     0.701350000000     0.504710000000    -0.160329   
N36      N      0.453750000000     0.660750000000     0.434010000000    -0.0180865  
N37      N      0.275010000000     0.263600000000     0.416770000000    -0.169008   
N38      N      0.242710000000     0.219180000000     0.348230000000    -0.160476   
N39      N      0.270250000000     0.330860000000     0.378760000000    -0.0167473  
N40      N      0.220320000000     0.204660000000     0.157880000000    -0.169541   
N41      N      0.265510000000     0.264740000000     0.111930000000    -0.160207   
N42      N      0.151640000000     0.237650000000     0.138700000000    -0.0187585  
N43      N      0.455480000000     0.318380000000     0.506480000000    -0.164997   
N44      N      0.546440000000     0.327440000000     0.008080000000    -0.155101   
N45      N      0.487390000000     0.250670000000     0.526260000000    -0.0265846  
N46      N      0.307110000000     0.445250000000     0.042110000000    -0.169644   
N47      N      0.320960000000     0.531310000000     0.525490000000    -0.160814   
N48      N      0.360760000000     0.445020000000     0.098070000000    -0.0185648  
N49      N      0.198960000000     0.030370000000     0.775190000000    -0.166114   
N50      N      0.213020000000     0.943520000000     0.786790000000    -0.160879   
N51      N      0.262110000000     0.031980000000     0.728850000000    -0.0281577  
N52      N      0.960510000000     0.811800000000     0.753750000000    -0.16954    
N53      N      0.046730000000     0.833320000000     0.759620000000    -0.161942   
N54      N      0.957200000000     0.834850000000     0.680950000000    -0.0173368  
N55      N      0.820890000000     0.044610000000     0.764710000000    -0.170513   
N56      N      0.839080000000     0.957490000000     0.762230000000    -0.161337   
N57      N      0.802210000000     0.045240000000     0.690740000000    -0.0177493  
N58      N      0.043390000000     0.171860000000     0.766290000000    -0.167228   
N59      N      0.956790000000     0.189570000000     0.749880000000    -0.157956   
N60      N      0.044010000000     0.232990000000     0.815520000000    -0.0279932  
N61      N      0.732750000000     0.747210000000     0.934080000000    -0.169395   
N62      N      0.783300000000     0.792330000000     0.877630000000    -0.16035    
N63      N      0.681840000000     0.805950000000     0.937030000000    -0.0176847  
N64      N      0.766140000000     0.762100000000     0.684400000000    -0.168996   
N65      N      0.714390000000     0.717890000000     0.628140000000    -0.160499   
N66      N      0.810590000000     0.699200000000     0.695850000000    -0.0171022  
N67      N      0.736370000000     0.272400000000     0.920570000000    -0.168944   
N68      N      0.775130000000     0.210310000000     0.872370000000    -0.161376   
N69      N      0.805670000000     0.291910000000     0.951060000000    -0.0159601  
N70      N      0.768220000000     0.244340000000     0.679100000000    -0.17032    
N71      N      0.736190000000     0.278140000000     0.604480000000    -0.159245   
N72      N      0.821290000000     0.301450000000     0.684360000000    -0.0190317  
N73      N      0.687850000000     0.465680000000     0.009520000000    -0.168637   
N74      N      0.664220000000     0.551670000000     0.508310000000    -0.161965   
N75      N      0.710990000000     0.473180000000     0.935580000000    -0.0289898  
N76      N      0.232520000000     0.749850000000     0.847960000000    -0.169563   
N77      N      0.277410000000     0.697670000000     0.903620000000    -0.159024   
N78      N      0.171150000000     0.701680000000     0.849430000000    -0.0171352  
N79      N      0.210230000000     0.767850000000     0.654320000000    -0.169932   
N80      N      0.266550000000     0.724020000000     0.603150000000    -0.163497   
N81      N      0.230330000000     0.836330000000     0.622950000000    -0.0177724  
N82      N      0.454080000000     0.676590000000     0.508110000000    -0.170069   
N83      N      0.539560000000     0.701360000000     0.004710000000    -0.161163   
N84      N      0.453750000000     0.660750000000     0.934010000000    -0.0181241  
N85      N      0.275010000000     0.263600000000     0.916770000000    -0.168771   
N86      N      0.242710000000     0.219180000000     0.848230000000    -0.160484   
N87      N      0.270250000000     0.330860000000     0.878760000000    -0.016672   
N88      N      0.220320000000     0.204660000000     0.657880000000    -0.169497   
N89      N      0.265510000000     0.264740000000     0.611930000000    -0.160134   
N90      N      0.151640000000     0.237650000000     0.638700000000    -0.018735   
N91      N      0.455480000000     0.318380000000     0.006480000000    -0.165829   
N92      N      0.546440000000     0.327440000000     0.508090000000    -0.154231   
N93      N      0.487390000000     0.250670000000     0.026260000000    -0.0278218  
N94      N      0.307110000000     0.445260000000     0.542110000000    -0.170266   
N95      N      0.320960000000     0.531310000000     0.025490000000    -0.162007   
N96      N      0.360760000000     0.445020000000     0.598070000000    -0.018642   
O1       O      0.267540000000     0.308260000000     0.054980000000    -0.498534   
O2       O      0.324870000000     0.278120000000     0.073230000000    -0.482053   
O3       O      0.295550000000     0.322390000000     0.453660000000    -0.473323   
O4       O      0.295040000000     0.384600000000     0.505270000000    -0.485773   
O5       O      0.392430000000     0.296610000000     0.035050000000    -0.474508   
O6       O      0.338220000000     0.380230000000     0.055170000000    -0.484156   
O7       O      0.310170000000     0.262740000000     0.479350000000    -0.503841   
O8       O      0.388800000000     0.339850000000     0.485160000000    -0.49608    
O9       O      0.273600000000     0.660670000000     0.464720000000    -0.486207   
O10      O      0.328760000000     0.697570000000     0.454190000000    -0.484906   
O11      O      0.286200000000     0.662480000000     0.071270000000    -0.504676   
O12      O      0.299610000000     0.594330000000     0.996360000000    -0.482883   
O13      O      0.390130000000     0.652630000000     0.481910000000    -0.480462   
O14      O      0.345970000000     0.596800000000     0.543940000000    -0.496312   
O15      O      0.305630000000     0.719970000000     0.043810000000    -0.501608   
O16      O      0.389200000000     0.681570000000     0.040350000000    -0.497548   
O17      O      0.683320000000     0.282320000000     0.055200000000    -0.491377   
O18      O      0.724530000000     0.334910000000     0.061320000000    -0.487117   
O19      O      0.676180000000     0.291460000000     0.456030000000    -0.491876   
O20      O      0.611570000000     0.324050000000     0.540710000000    -0.492234   
O21      O      0.690860000000     0.399870000000     0.978490000000    -0.467789   
O22      O      0.610830000000     0.339520000000     0.977020000000    -0.485287   
O23      O      0.733650000000     0.321280000000     0.472890000000    -0.474881   
O24      O      0.671430000000     0.401850000000     0.540150000000    -0.504149   
O25      O      0.712160000000     0.673040000000     0.072710000000    -0.492769   
O26      O      0.669960000000     0.725210000000     0.072100000000    -0.487165   
O27      O      0.725250000000     0.692370000000     0.480730000000    -0.497163   
O28      O      0.676420000000     0.618650000000     0.483070000000    -0.494307   
O29      O      0.601040000000     0.698590000000     0.043240000000    -0.486031   
O30      O      0.654790000000     0.613150000000     0.044430000000    -0.498979   
O31      O      0.673670000000     0.734490000000     0.474050000000    -0.484113   
O32      O      0.604780000000     0.680790000000     0.480610000000    -0.49375    
O33      O      0.778230000000     0.183620000000     0.217440000000    -0.488202   
O34      O      0.821240000000     0.233430000000     0.227890000000    -0.482675   
O35      O      0.772210000000     0.182560000000     0.307190000000    -0.499956   
O36      O      0.835250000000     0.107990000000     0.296600000000    -0.505244   
O37      O      0.892500000000     0.158900000000     0.233600000000    -0.490417   
O38      O      0.815380000000     0.110760000000     0.234460000000    -0.471176   
O39      O      0.832780000000     0.198950000000     0.330940000000    -0.485391   
O40      O      0.893130000000     0.204580000000     0.280860000000    -0.476714   
O41      O      0.823160000000     0.771810000000     0.228620000000    -0.482754   
O42      O      0.776420000000     0.819650000000     0.226500000000    -0.497226   
O43      O      0.831320000000     0.786340000000     0.325020000000    -0.48612    
O44      O      0.899580000000     0.812510000000     0.292430000000    -0.493265   
O45      O      0.825170000000     0.892160000000     0.234580000000    -0.488622   
O46      O      0.893040000000     0.827290000000     0.229200000000    -0.476972   
O47      O      0.784010000000     0.833740000000     0.319130000000    -0.497585   
O48      O      0.844970000000     0.894200000000     0.296960000000    -0.501834   
O49      O      0.175130000000     0.770540000000     0.307900000000    -0.473178   
O50      O      0.232720000000     0.803780000000     0.299710000000    -0.504164   
O51      O      0.185080000000     0.766340000000     0.220710000000    -0.498496   
O52      O      0.110670000000     0.819020000000     0.291080000000    -0.489391   
O53      O      0.215780000000     0.882420000000     0.249170000000    -0.481542   
O54      O      0.112040000000     0.837750000000     0.228440000000    -0.499112   
O55      O      0.197920000000     0.826300000000     0.194830000000    -0.468863   
O56      O      0.172840000000     0.884210000000     0.298970000000    -0.503303   
O57      O      0.225940000000     0.167550000000     0.218830000000    -0.487365   
O58      O      0.165030000000     0.190400000000     0.202410000000    -0.473775   
O59      O      0.198350000000     0.216450000000     0.291680000000    -0.487524   
O60      O      0.111860000000     0.183370000000     0.291150000000    -0.475813   
O61      O      0.199700000000     0.094190000000     0.240130000000    -0.473268   
O62      O      0.104920000000     0.142650000000     0.240700000000    -0.499651   
O63      O      0.211440000000     0.158980000000     0.322910000000    -0.493058   
O64      O      0.167460000000     0.092140000000     0.296790000000    -0.49726    
O65      O      0.276950000000     0.058520000000     0.257010000000    -0.0913787  
O66      O      0.251270000000     0.053840000000     0.195330000000    -0.0774884  
O67      O      0.948710000000     0.875620000000     0.186060000000    -0.0936542  
O68      O      0.978200000000     0.831260000000     0.145840000000    -0.0971009  
O69      O      0.840760000000     0.053130000000     0.176050000000    -0.0880387  
O70      O      0.781110000000     0.023370000000     0.162460000000    -0.0971955  
O71      O      0.068930000000     0.252910000000     0.288830000000    -0.0781487  
O72      O      0.067640000000     0.217510000000     0.346150000000    -0.0785926  
O73      O      0.700640000000     0.824310000000     0.469000000000    -0.0955195  
O74      O      0.663110000000     0.836040000000     0.414640000000    -0.0985552  
O75      O      0.788140000000     0.685090000000     0.227580000000    -0.0947561  
O76      O      0.827470000000     0.665940000000     0.177370000000    -0.095006   
O77      O      0.803850000000     0.265720000000     0.483180000000    -0.0954356  
O78      O      0.846400000000     0.297410000000     0.441930000000    -0.0891053  
O79      O      0.852110000000     0.282710000000     0.163500000000    -0.0868643  
O80      O      0.825870000000     0.342890000000     0.179360000000    -0.092633   
O81      O      0.676330000000     0.453530000000     0.422040000000    -0.0866208  
O82      O      0.742790000000     0.445680000000     0.438440000000    -0.0733217  
O83      O      0.183800000000     0.678930000000     0.317570000000    -0.0904471  
O84      O      0.148560000000     0.676550000000     0.373830000000    -0.0966301  
O85      O      0.264180000000     0.845980000000     0.145780000000    -0.0873358  
O86      O      0.235490000000     0.854430000000     0.086310000000    -0.0987545  
O87      O      0.440390000000     0.698760000000     0.421990000000    -0.0915805  
O88      O      0.477300000000     0.645050000000     0.404010000000    -0.100157   
O89      O      0.309620000000     0.328970000000     0.364330000000    -0.0914752  
O90      O      0.246800000000     0.352420000000     0.351670000000    -0.0924695  
O91      O      0.148780000000     0.266820000000     0.167780000000    -0.0843976  
O92      O      0.130500000000     0.252030000000     0.105930000000    -0.0943969  
O93      O      0.497180000000     0.247890000000     0.486720000000    -0.0924629  
O94      O      0.451420000000     0.229470000000     0.031730000000    -0.0831307  
O95      O      0.396190000000     0.438490000000     0.076970000000    -0.0966309  
O96      O      0.371450000000     0.466550000000     0.131520000000    -0.0986401  
O97      O      0.267540000000     0.308260000000     0.554970000000    -0.498607   
O98      O      0.324870000000     0.278120000000     0.573230000000    -0.482334   
O99      O      0.295550000000     0.322390000000     0.953660000000    -0.471346   
O100     O      0.295040000000     0.384600000000     0.005270000000    -0.486511   
O101     O      0.392430000000     0.296610000000     0.535050000000    -0.475569   
O102     O      0.338210000000     0.380230000000     0.555170000000    -0.484713   
O103     O      0.310170000000     0.262740000000     0.979350000000    -0.501504   
O104     O      0.388800000000     0.339850000000     0.985160000000    -0.491782   
O105     O      0.273600000000     0.660660000000     0.964720000000    -0.484143   
O106     O      0.328760000000     0.697570000000     0.954190000000    -0.482935   
O107     O      0.286200000000     0.662480000000     0.571270000000    -0.505232   
O108     O      0.299610000000     0.594340000000     0.496360000000    -0.487264   
O109     O      0.390140000000     0.652630000000     0.981910000000    -0.476114   
O110     O      0.345970000000     0.596810000000     0.043940000000    -0.494992   
O111     O      0.305630000000     0.719970000000     0.543820000000    -0.501712   
O112     O      0.389200000000     0.681570000000     0.540350000000    -0.498891   
O113     O      0.683320000000     0.282320000000     0.555200000000    -0.491581   
O114     O      0.724530000000     0.334910000000     0.561320000000    -0.487481   
O115     O      0.676180000000     0.291460000000     0.956030000000    -0.489953   
O116     O      0.611570000000     0.324050000000     0.040710000000    -0.490816   
O117     O      0.690860000000     0.399870000000     0.478490000000    -0.471821   
O118     O      0.610830000000     0.339520000000     0.477020000000    -0.489394   
O119     O      0.733650000000     0.321280000000     0.972890000000    -0.472768   
O120     O      0.671430000000     0.401840000000     0.040150000000    -0.502768   
O121     O      0.712160000000     0.673030000000     0.572710000000    -0.49298    
O122     O      0.669960000000     0.725210000000     0.572100000000    -0.487448   
O123     O      0.725260000000     0.692370000000     0.980730000000    -0.494778   
O124     O      0.676420000000     0.618650000000     0.983070000000    -0.490236   
O125     O      0.601050000000     0.698590000000     0.543240000000    -0.487471   
O126     O      0.654790000000     0.613150000000     0.544430000000    -0.50039    
O127     O      0.673660000000     0.734490000000     0.974050000000    -0.481842   
O128     O      0.604780000000     0.680800000000     0.980610000000    -0.48965    
O129     O      0.778230000000     0.183620000000     0.717440000000    -0.488045   
O130     O      0.821250000000     0.233430000000     0.727900000000    -0.482427   
O131     O      0.772210000000     0.182560000000     0.807200000000    -0.499853   
O132     O      0.835250000000     0.107990000000     0.796600000000    -0.505052   
O133     O      0.892500000000     0.158900000000     0.733600000000    -0.490292   
O134     O      0.815380000000     0.110760000000     0.734450000000    -0.470876   
O135     O      0.832790000000     0.198950000000     0.830950000000    -0.485053   
O136     O      0.893130000000     0.204580000000     0.780860000000    -0.476617   
O137     O      0.823150000000     0.771810000000     0.728620000000    -0.48283    
O138     O      0.776420000000     0.819650000000     0.726500000000    -0.497313   
O139     O      0.831320000000     0.786340000000     0.825020000000    -0.486056   
O140     O      0.899580000000     0.812510000000     0.792430000000    -0.493089   
O141     O      0.825170000000     0.892160000000     0.734580000000    -0.488546   
O142     O      0.893040000000     0.827290000000     0.729200000000    -0.476838   
O143     O      0.784010000000     0.833740000000     0.819130000000    -0.497637   
O144     O      0.844970000000     0.894200000000     0.796960000000    -0.501676   
O145     O      0.175130000000     0.770540000000     0.807900000000    -0.473102   
O146     O      0.232720000000     0.803770000000     0.799710000000    -0.504112   
O147     O      0.185080000000     0.766340000000     0.720710000000    -0.498447   
O148     O      0.110670000000     0.819010000000     0.791080000000    -0.489218   
O149     O      0.215780000000     0.882420000000     0.749170000000    -0.481507   
O150     O      0.112040000000     0.837750000000     0.728440000000    -0.498995   
O151     O      0.197920000000     0.826300000000     0.694830000000    -0.468792   
O152     O      0.172840000000     0.884210000000     0.798970000000    -0.503212   
O153     O      0.225940000000     0.167550000000     0.718830000000    -0.487247   
O154     O      0.165030000000     0.190400000000     0.702410000000    -0.473743   
O155     O      0.198350000000     0.216450000000     0.791680000000    -0.487391   
O156     O      0.111860000000     0.183370000000     0.791150000000    -0.4759     
O157     O      0.199700000000     0.094190000000     0.740130000000    -0.473104   
O158     O      0.104920000000     0.142650000000     0.740710000000    -0.499838   
O159     O      0.211440000000     0.158980000000     0.822910000000    -0.492881   
O160     O      0.167460000000     0.092140000000     0.796790000000    -0.497212   
O161     O      0.276950000000     0.058520000000     0.757010000000    -0.0912155  
O162     O      0.251270000000     0.053840000000     0.695330000000    -0.0772455  
O163     O      0.948710000000     0.875630000000     0.686060000000    -0.0934311  
O164     O      0.978190000000     0.831260000000     0.645840000000    -0.0966234  
O165     O      0.840760000000     0.053130000000     0.676050000000    -0.087744   
O166     O      0.781110000000     0.023370000000     0.662460000000    -0.0967808  
O167     O      0.068930000000     0.252910000000     0.788830000000    -0.0780054  
O168     O      0.067640000000     0.217510000000     0.846150000000    -0.0782379  
O169     O      0.700640000000     0.824310000000     0.968990000000    -0.0945982  
O170     O      0.663110000000     0.836040000000     0.914640000000    -0.0980871  
O171     O      0.788130000000     0.685090000000     0.727580000000    -0.0946846  
O172     O      0.827470000000     0.665950000000     0.677370000000    -0.0947112  
O173     O      0.803860000000     0.265720000000     0.983180000000    -0.0943462  
O174     O      0.846400000000     0.297410000000     0.941930000000    -0.088499   
O175     O      0.852110000000     0.282710000000     0.663500000000    -0.0865575  
O176     O      0.825880000000     0.342890000000     0.679360000000    -0.092375   
O177     O      0.676330000000     0.453530000000     0.922040000000    -0.0862425  
O178     O      0.742790000000     0.445680000000     0.938450000000    -0.0727724  
O179     O      0.183800000000     0.678930000000     0.817570000000    -0.0903268  
O180     O      0.148560000000     0.676550000000     0.873840000000    -0.0962059  
O181     O      0.264180000000     0.845980000000     0.645780000000    -0.0871407  
O182     O      0.235490000000     0.854440000000     0.586310000000    -0.0981193  
O183     O      0.440390000000     0.698770000000     0.921990000000    -0.0910906  
O184     O      0.477300000000     0.645050000000     0.904010000000    -0.0999298  
O185     O      0.309620000000     0.328960000000     0.864330000000    -0.0912868  
O186     O      0.246800000000     0.352420000000     0.851670000000    -0.0922217  
O187     O      0.148780000000     0.266820000000     0.667780000000    -0.084253   
O188     O      0.130500000000     0.252030000000     0.605940000000    -0.0938298  
O189     O      0.497180000000     0.247890000000     0.986720000000    -0.0899101  
O190     O      0.451420000000     0.229470000000     0.531730000000    -0.0822439  
O191     O      0.396190000000     0.438490000000     0.576970000000    -0.0962127  
O192     O      0.371450000000     0.466550000000     0.631520000000    -0.0985325  


