data_structure

_audit_creation_method RASPA-1.0
_audit_creation_date 2023-6-5
_audit_author_name 'Poobodin Mano'

_cell_length_a    30.6768
_cell_length_b    30.0594
_cell_length_c    34.0941
_cell_angle_alpha 89.5544
_cell_angle_beta  90.4457
_cell_angle_gamma 89.9991
_cell_volume      31437.2

_symmetry_cell_setting          triclinic
_symmetry_space_group_name_Hall 'P 1'
_symmetry_space_group_name_H-M  'P 1'
_symmetry_Int_Tables_number     1

_symmetry_equiv_pos_as_xyz 'x,y,z'

loop_
_atom_site_label
_atom_site_type_symbol
_atom_site_fract_x
_atom_site_fract_y
_atom_site_fract_z
_atom_site_charge
C1       C      0.326550000000     0.432300000000     0.991420000000     0.409442   
C2       C      0.333810000000     0.303830000000     0.414430000000     0.405421   
C3       C      0.438590000000     0.346860000000     0.491120000000     0.408484   
C4       C      0.303830000000     0.302520000000     0.037420000000     0.408706   
C5       C      0.334450000000     0.609090000000     0.473830000000     0.404289   
C6       C      0.274490000000     0.738480000000     0.014310000000     0.412135   
C7       C      0.417840000000     0.717420000000     0.973800000000     0.411181   
C8       C      0.303160000000     0.725980000000     0.394740000000     0.405208   
C9       C      0.609550000000     0.321350000000     0.005570000000     0.410018   
C10      C      0.749340000000     0.300020000000     0.473690000000     0.406432   
C11      C      0.684180000000     0.433600000000     0.515040000000     0.408576   
C12      C      0.728180000000     0.319970000000     0.089940000000     0.4043     
C13      C      0.693650000000     0.614620000000     0.007080000000     0.406088   
C14      C      0.715450000000     0.740760000000     0.431800000000     0.404581   
C15      C      0.593020000000     0.702560000000     0.493150000000     0.407341   
C16      C      0.721130000000     0.750300000000     0.054430000000     0.410177   
C17      C      0.862810000000     0.130920000000     0.262280000000     0.412137   
C18      C      0.826490000000     0.239020000000     0.342620000000     0.404597   
C19      C      0.938400000000     0.242490000000     0.252230000000     0.405402   
C20      C      0.798590000000     0.267860000000     0.225520000000     0.411861   
C21      C      0.918330000000     0.846690000000     0.228320000000     0.408089   
C22      C      0.795850000000     0.830450000000     0.311810000000     0.40769    
C23      C      0.836760000000     0.951800000000     0.254580000000     0.408304   
C24      C      0.786640000000     0.820860000000     0.189240000000     0.407667   
C25      C      0.095460000000     0.850340000000     0.219630000000     0.407422   
C26      C      0.199880000000     0.810850000000     0.142650000000     0.404605   
C27      C      0.208820000000     0.926330000000     0.235940000000     0.407997   
C28      C      0.231740000000     0.789650000000     0.260720000000     0.40707    
C29      C      0.111480000000     0.216540000000     0.240230000000     0.413001   
C30      C      0.246630000000     0.226280000000     0.292440000000     0.415564   
C31      C      0.197930000000     0.102430000000     0.233370000000     0.407459   
C32      C      0.225980000000     0.221960000000     0.164290000000     0.402051   
C33      C      0.171770000000     0.030220000000     0.259390000000    -0.00982131 
C34      C      0.226430000000     0.033610000000     0.203930000000    -0.016363   
C35      C      0.198060000000     0.991850000000     0.277800000000    -0.0126641  
C36      C      0.252330000000     0.996590000000     0.224520000000     0.0119454  
C37      C      0.280110000000     0.972660000000     0.196540000000     0.071855   
C38      C      0.028820000000     0.839610000000     0.258770000000    -0.00986538 
C39      C      0.025050000000     0.877370000000     0.192560000000    -0.0160162  
C40      C      0.988240000000     0.812680000000     0.248180000000    -0.0124635  
C41      C      0.983690000000     0.850510000000     0.182900000000     0.00998157 
C42      C      0.956790000000     0.875330000000     0.154120000000     0.0665423  
C43      C      0.820040000000     0.027280000000     0.229230000000    -0.0109453  
C44      C      0.853720000000     0.016750000000     0.296180000000    -0.0171606  
C45      C      0.852390000000     0.064820000000     0.220880000000    -0.0109747  
C46      C      0.886000000000     0.054560000000     0.287330000000     0.0116956  
C47      C      0.900150000000     0.075100000000     0.324480000000     0.0697177  
C48      C      0.999590000000     0.242860000000     0.205460000000    -0.00997161 
C49      C      0.008970000000     0.276550000000     0.271070000000    -0.0153601  
C50      C      0.038010000000     0.211650000000     0.212620000000    -0.0105719  
C51      C      0.050010000000     0.248350000000     0.279380000000     0.0100837  
C52      C      0.081300000000     0.276420000000     0.301170000000     0.0693177  
C53      C      0.773800000000     0.743460000000     0.382210000000    -0.0106124  
C54      C      0.707030000000     0.791230000000     0.374560000000    -0.0163906  
C55      C      0.802290000000     0.783180000000     0.370880000000    -0.0125784  
C56      C      0.735870000000     0.830910000000     0.362770000000     0.00987884 
C57      C      0.710400000000     0.861200000000     0.337170000000     0.0694467  
C58      C      0.774770000000     0.754700000000     0.147840000000    -0.0100423  
C59      C      0.725500000000     0.820980000000     0.141200000000    -0.0164239  
C60      C      0.780440000000     0.754100000000     0.103370000000    -0.0119862  
C61      C      0.730230000000     0.819450000000     0.096290000000     0.0100629  
C62      C      0.690650000000     0.838230000000     0.077690000000     0.0703253  
C63      C      0.819750000000     0.296480000000     0.438970000000    -0.00956259 
C64      C      0.772100000000     0.230060000000     0.441960000000    -0.0154177  
C65      C      0.822380000000     0.294010000000     0.394470000000    -0.0113591  
C66      C      0.775000000000     0.223430000000     0.397320000000     0.0107785  
C67      C      0.778770000000     0.175130000000     0.390130000000     0.0705024  
C68      C      0.732580000000     0.265220000000     0.144130000000    -0.0108329  
C69      C      0.783340000000     0.332100000000     0.141890000000    -0.015929   
C70      C      0.729290000000     0.270880000000     0.188600000000    -0.0111384  
C71      C      0.777750000000     0.336620000000     0.186310000000     0.011734   
C72      C      0.814860000000     0.360760000000     0.203860000000     0.0671332  
C73      C      0.717480000000     0.542030000000     0.480900000000    -0.0109126  
C74      C      0.691060000000     0.547960000000     0.050070000000    -0.0162256  
C75      C      0.687870000000     0.501730000000     0.474550000000    -0.0118872  
C76      C      0.661120000000     0.507660000000     0.043640000000     0.010561   
C77      C      0.653760000000     0.485200000000     0.081670000000     0.068301   
C78      C      0.238510000000     0.722280000000     0.302470000000    -0.00958546 
C79      C      0.302870000000     0.770390000000     0.291040000000    -0.015682   
C80      C      0.243690000000     0.726560000000     0.346770000000    -0.0116828  
C81      C      0.311150000000     0.775030000000     0.335390000000     0.0102592  
C82      C      0.358870000000     0.775770000000     0.341800000000     0.070695   
C83      C      0.240080000000     0.807040000000     0.039240000000    -0.00879966 
C84      C      0.208610000000     0.733390000000     0.055480000000    -0.0149875  
C85      C      0.240330000000     0.820760000000     0.082180000000    -0.0119286  
C86      C      0.205710000000     0.745020000000     0.099270000000     0.0109185  
C87      C      0.163810000000     0.727600000000     0.114040000000     0.0662246  
C88      C      0.526070000000     0.685660000000     0.455500000000    -0.00946721 
C89      C      0.521390000000     0.713930000000     0.024780000000    -0.0159724  
C90      C      0.490260000000     0.718240000000     0.443200000000    -0.0118447  
C91      C      0.484070000000     0.745230000000     0.011870000000     0.0105551  
C92      C      0.455600000000     0.754290000000     0.045550000000     0.0710249  
C93      C      0.319720000000     0.306360000000     0.342820000000    -0.00987452 
C94      C      0.325660000000     0.233640000000     0.377580000000    -0.0158569  
C95      C      0.276590000000     0.292530000000     0.323900000000    -0.0119272  
C96      C      0.283190000000     0.217100000000     0.358220000000     0.0102636  
C97      C      0.288310000000     0.169020000000     0.350770000000     0.0676522  
C98      C      0.279570000000     0.215230000000     0.111100000000    -0.00984037 
C99      C      0.211840000000     0.259510000000     0.100620000000    -0.015841   
C100     C      0.307130000000     0.252540000000     0.093970000000    -0.0111946  
C101     C      0.237840000000     0.296930000000     0.080260000000     0.010219   
C102     C      0.210580000000     0.314900000000     0.047920000000     0.0677826  
C103     C      0.512400000000     0.355500000000     0.462910000000    -0.0112689  
C104     C      0.502590000000     0.334600000000     0.034260000000    -0.0161761  
C105     C      0.547110000000     0.318910000000     0.459540000000    -0.0122732  
C106     C      0.535300000000     0.296730000000     0.028960000000     0.0124633  
C107     C      0.554720000000     0.283150000000     0.066930000000     0.0718096  
C108     C      0.317860000000     0.535140000000     0.446310000000    -0.0108154  
C109     C      0.357190000000     0.542230000000     0.011530000000    -0.0159924  
C110     C      0.289450000000     0.498380000000     0.464050000000    -0.011917   
C111     C      0.327840000000     0.505390000000     0.028070000000     0.0120473  
C112     C      0.349170000000     0.482760000000     0.061630000000     0.0676654  
C113     C      0.326550000000     0.432310000000     0.491420000000     0.410367   
C114     C      0.333810000000     0.303830000000     0.914430000000     0.405294   
C115     C      0.438590000000     0.346860000000     0.991120000000     0.407396   
C116     C      0.303830000000     0.302520000000     0.537420000000     0.408886   
C117     C      0.334450000000     0.609090000000     0.973820000000     0.403321   
C118     C      0.274490000000     0.738480000000     0.514310000000     0.411243   
C119     C      0.417840000000     0.717420000000     0.473800000000     0.412254   
C120     C      0.303160000000     0.725970000000     0.894740000000     0.40518    
C121     C      0.609550000000     0.321350000000     0.505570000000     0.408229   
C122     C      0.749340000000     0.300020000000     0.973690000000     0.406533   
C123     C      0.684180000000     0.433600000000     0.015040000000     0.40965    
C124     C      0.728180000000     0.319970000000     0.589940000000     0.404246   
C125     C      0.693650000000     0.614620000000     0.507080000000     0.405155   
C126     C      0.715450000000     0.740760000000     0.931800000000     0.404315   
C127     C      0.593020000000     0.702560000000     0.993150000000     0.406263   
C128     C      0.721130000000     0.750300000000     0.554430000000     0.409954   
C129     C      0.862820000000     0.130920000000     0.762280000000     0.412129   
C130     C      0.826490000000     0.239020000000     0.842620000000     0.404589   
C131     C      0.938400000000     0.242490000000     0.752230000000     0.405402   
C132     C      0.798590000000     0.267860000000     0.725520000000     0.411857   
C133     C      0.918330000000     0.846700000000     0.728320000000     0.407861   
C134     C      0.795850000000     0.830450000000     0.811800000000     0.407719   
C135     C      0.836770000000     0.951800000000     0.754580000000     0.408297   
C136     C      0.786640000000     0.820860000000     0.689250000000     0.407553   
C137     C      0.095460000000     0.850340000000     0.719630000000     0.407426   
C138     C      0.199880000000     0.810850000000     0.642650000000     0.404398   
C139     C      0.208820000000     0.926330000000     0.735940000000     0.407993   
C140     C      0.231740000000     0.789650000000     0.760720000000     0.407062   
C141     C      0.111480000000     0.216540000000     0.740230000000     0.413171   
C142     C      0.246630000000     0.226280000000     0.792440000000     0.415649   
C143     C      0.197930000000     0.102430000000     0.733370000000     0.407667   
C144     C      0.225980000000     0.221960000000     0.664290000000     0.402051   
C145     C      0.171770000000     0.030220000000     0.759390000000    -0.00981073 
C146     C      0.226430000000     0.033610000000     0.703930000000    -0.0163585  
C147     C      0.198060000000     0.991850000000     0.777800000000    -0.012662   
C148     C      0.252330000000     0.996590000000     0.724530000000     0.0119687  
C149     C      0.280110000000     0.972660000000     0.696540000000     0.0718085  
C150     C      0.028820000000     0.839610000000     0.758770000000    -0.00987309 
C151     C      0.025050000000     0.877370000000     0.692560000000    -0.0160352  
C152     C      0.988240000000     0.812680000000     0.748170000000    -0.0123979  
C153     C      0.983690000000     0.850510000000     0.682900000000     0.00998183 
C154     C      0.956790000000     0.875330000000     0.654120000000     0.0664843  
C155     C      0.820040000000     0.027270000000     0.729230000000    -0.0108646  
C156     C      0.853720000000     0.016750000000     0.796180000000    -0.0171551  
C157     C      0.852390000000     0.064820000000     0.720880000000    -0.0110276  
C158     C      0.886000000000     0.054560000000     0.787330000000     0.0116934  
C159     C      0.900150000000     0.075100000000     0.824480000000     0.0696736  
C160     C      0.999590000000     0.242860000000     0.705460000000    -0.00997229 
C161     C      0.008970000000     0.276550000000     0.771070000000    -0.0153515  
C162     C      0.038010000000     0.211650000000     0.712620000000    -0.0105504  
C163     C      0.050010000000     0.248350000000     0.779380000000     0.0100711  
C164     C      0.081300000000     0.276420000000     0.801170000000     0.069266   
C165     C      0.773800000000     0.743460000000     0.882210000000    -0.0106851  
C166     C      0.707030000000     0.791230000000     0.874560000000    -0.0163669  
C167     C      0.802290000000     0.783180000000     0.870880000000    -0.0125318  
C168     C      0.735870000000     0.830910000000     0.862770000000     0.00987486 
C169     C      0.710400000000     0.861200000000     0.837170000000     0.069385   
C170     C      0.774770000000     0.754690000000     0.647840000000    -0.0101785  
C171     C      0.725500000000     0.820980000000     0.641200000000    -0.0164168  
C172     C      0.780440000000     0.754100000000     0.603370000000    -0.0119523  
C173     C      0.730230000000     0.819450000000     0.596290000000     0.010101   
C174     C      0.690650000000     0.838230000000     0.577690000000     0.0702065  
C175     C      0.819750000000     0.296480000000     0.938970000000    -0.00954118 
C176     C      0.772100000000     0.230060000000     0.941960000000    -0.0153918  
C177     C      0.822380000000     0.294010000000     0.894470000000    -0.0113703  
C178     C      0.775000000000     0.223430000000     0.897310000000     0.0107747  
C179     C      0.778770000000     0.175130000000     0.890130000000     0.0704359  
C180     C      0.732580000000     0.265220000000     0.644140000000    -0.0108314  
C181     C      0.783340000000     0.332100000000     0.641890000000    -0.0159209  
C182     C      0.729290000000     0.270880000000     0.688600000000    -0.0111351  
C183     C      0.777750000000     0.336620000000     0.686310000000     0.0117499  
C184     C      0.814860000000     0.360760000000     0.703860000000     0.0670978  
C185     C      0.717480000000     0.542030000000     0.980900000000    -0.0113479  
C186     C      0.691060000000     0.547960000000     0.550080000000    -0.0164     
C187     C      0.687870000000     0.501730000000     0.974550000000    -0.0123429  
C188     C      0.661120000000     0.507660000000     0.543640000000     0.0105429  
C189     C      0.653760000000     0.485200000000     0.581670000000     0.0682499  
C190     C      0.238510000000     0.722280000000     0.802470000000    -0.00958856 
C191     C      0.302870000000     0.770390000000     0.791040000000    -0.0156933  
C192     C      0.243690000000     0.726560000000     0.846770000000    -0.0116814  
C193     C      0.311150000000     0.775030000000     0.835390000000     0.0102909  
C194     C      0.358870000000     0.775770000000     0.841800000000     0.0706445  
C195     C      0.240080000000     0.807050000000     0.539240000000    -0.00888033 
C196     C      0.208610000000     0.733390000000     0.555480000000    -0.0150012  
C197     C      0.240330000000     0.820770000000     0.582180000000    -0.0119687  
C198     C      0.205710000000     0.745020000000     0.599270000000     0.0109292  
C199     C      0.163810000000     0.727600000000     0.614040000000     0.066162   
C200     C      0.526070000000     0.685660000000     0.955490000000    -0.00965075 
C201     C      0.521390000000     0.713930000000     0.524780000000    -0.0164435  
C202     C      0.490260000000     0.718240000000     0.943200000000    -0.0118751  
C203     C      0.484070000000     0.745230000000     0.511870000000     0.0101913  
C204     C      0.455600000000     0.754290000000     0.545550000000     0.0709451  
C205     C      0.319720000000     0.306360000000     0.842820000000    -0.0098667  
C206     C      0.325660000000     0.233640000000     0.877580000000    -0.0158808  
C207     C      0.276590000000     0.292530000000     0.823900000000    -0.0119079  
C208     C      0.283190000000     0.217100000000     0.858220000000     0.0102633  
C209     C      0.288310000000     0.169020000000     0.850770000000     0.0675773  
C210     C      0.279570000000     0.215230000000     0.611100000000    -0.00982824 
C211     C      0.211840000000     0.259510000000     0.600620000000    -0.0158348  
C212     C      0.307130000000     0.252540000000     0.593970000000    -0.0112149  
C213     C      0.237840000000     0.296930000000     0.580260000000     0.0102236  
C214     C      0.210580000000     0.314900000000     0.547920000000     0.0676445  
C215     C      0.512400000000     0.355500000000     0.962900000000    -0.0114994  
C216     C      0.502590000000     0.334600000000     0.534270000000    -0.0167014  
C217     C      0.547110000000     0.318910000000     0.959550000000    -0.0121265  
C218     C      0.535300000000     0.296730000000     0.528960000000     0.0120307  
C219     C      0.554720000000     0.283150000000     0.566940000000     0.0718327  
C220     C      0.317860000000     0.535140000000     0.946310000000    -0.0108776  
C221     C      0.357190000000     0.542230000000     0.511530000000    -0.0164584  
C222     C      0.289450000000     0.498380000000     0.964050000000    -0.0119298  
C223     C      0.327840000000     0.505390000000     0.528070000000     0.0117016  
C224     C      0.349170000000     0.482760000000     0.561630000000     0.0676026  
H1       H      0.222050000000     0.006180000000     0.298820000000     0.0473843  
H2       H      0.157440000000     0.050450000000     0.283220000000     0.0520695  
H3       H      0.274780000000     0.012980000000     0.245760000000     0.044483   
H4       H      0.249280000000     0.056440000000     0.188520000000     0.057814   
H5       H      0.144430000000     0.015780000000     0.242080000000     0.0424446  
H6       H      0.204600000000     0.018520000000     0.181450000000     0.0492657  
H7       H      0.175810000000     0.969830000000     0.294680000000     0.0517308  
H8       H      0.998950000000     0.781070000000     0.234500000000     0.0459618  
H9       H      0.050080000000     0.819130000000     0.278340000000     0.0528549  
H10      H      0.994500000000     0.819500000000     0.168270000000     0.0428664  
H11      H      0.043910000000     0.883160000000     0.165230000000     0.0540422  
H12      H      0.018440000000     0.869390000000     0.275440000000     0.0444336  
H13      H      0.015300000000     0.910430000000     0.204100000000     0.0460361  
H14      H      0.970720000000     0.803890000000     0.275570000000     0.0543858  
H15      H      0.881280000000     0.050230000000     0.206240000000     0.0442969  
H16      H      0.812230000000     0.010000000000     0.201330000000     0.0549356  
H17      H      0.915350000000     0.039080000000     0.274170000000     0.0397062  
H18      H      0.869620000000     0.991710000000     0.315800000000     0.0558748  
H19      H      0.789410000000     0.042260000000     0.240300000000     0.0491895  
H20      H      0.825300000000     0.030690000000     0.312050000000     0.0540849  
H21      H      0.837120000000     0.088750000000     0.199890000000     0.0536369  
H22      H      0.025230000000     0.178860000000     0.222570000000     0.0452007  
H23      H      0.976000000000     0.226950000000     0.185010000000     0.0512161  
H24      H      0.040460000000     0.220480000000     0.299150000000     0.0450081  
H25      H      0.992300000000     0.284020000000     0.299140000000     0.0581944  
H26      H      0.011940000000     0.273780000000     0.191250000000     0.0453654  
H27      H      0.018870000000     0.308910000000     0.257690000000     0.0487174  
H28      H      0.054440000000     0.206390000000     0.184050000000     0.052672   
H29      H      0.812520000000     0.800310000000     0.398250000000     0.0446058  
H30      H      0.792160000000     0.721920000000     0.403220000000     0.051775   
H31      H      0.743630000000     0.849440000000     0.390060000000     0.0433843  
H32      H      0.677850000000     0.803550000000     0.390360000000     0.0570519  
H33      H      0.767150000000     0.723710000000     0.355370000000     0.0449589  
H34      H      0.695390000000     0.774290000000     0.347500000000     0.0483923  
H35      H      0.832250000000     0.770530000000     0.356630000000     0.0539349  
H36      H      0.809570000000     0.774440000000     0.095950000000     0.0453991  
H37      H      0.805050000000     0.741990000000     0.162130000000     0.0511855  
H38      H      0.757740000000     0.841860000000     0.088510000000     0.043427   
H39      H      0.721020000000     0.856030000000     0.150640000000     0.0586904  
H40      H      0.747710000000     0.731710000000     0.155590000000     0.0448578  
H41      H      0.695760000000     0.802080000000     0.149650000000     0.0499132  
H42      H      0.787190000000     0.719370000000     0.094250000000     0.0527754  
H43      H      0.799310000000     0.318770000000     0.381610000000     0.0462702  
H44      H      0.823550000000     0.331660000000     0.448240000000     0.0516961  
H45      H      0.743760000000     0.234880000000     0.383910000000     0.0448285  
H46      H      0.740290000000     0.217100000000     0.452580000000     0.0555098  
H47      H      0.847330000000     0.277040000000     0.451740000000     0.0438386  
H48      H      0.798260000000     0.210360000000     0.456870000000     0.0471053  
H49      H      0.855780000000     0.304320000000     0.385710000000     0.0552506  
H50      H      0.700990000000     0.292850000000     0.194690000000     0.0464345  
H51      H      0.700720000000     0.253050000000     0.132740000000     0.0575522  
H52      H      0.748390000000     0.357640000000     0.190880000000     0.0431822  
H53      H      0.786630000000     0.365780000000     0.128430000000     0.0568006  
H54      H      0.757380000000     0.239200000000     0.138180000000     0.0459454  
H55      H      0.813900000000     0.313410000000     0.136060000000     0.0489406  
H56      H      0.722750000000     0.238040000000     0.202560000000     0.0540536  
H57      H      0.656490000000     0.513730000000     0.461790000000     0.0425386  
H58      H      0.720930000000     0.560460000000     0.452700000000     0.0520861  
H59      H      0.629030000000     0.520740000000     0.033410000000     0.0401459  
H60      H      0.675920000000     0.570970000000     0.071460000000     0.0553472  
H61      H      0.750310000000     0.529760000000     0.489860000000     0.0457165  
H62      H      0.722530000000     0.536170000000     0.062910000000     0.0492575  
H63      H      0.703220000000     0.479650000000     0.452600000000     0.052504   
H64      H      0.220660000000     0.752470000000     0.357050000000     0.0444545  
H65      H      0.203560000000     0.716960000000     0.295010000000     0.0531072  
H66      H      0.298080000000     0.807790000000     0.344590000000     0.0444968  
H67      H      0.314710000000     0.800710000000     0.275500000000     0.0567     
H68      H      0.257030000000     0.692490000000     0.292950000000     0.044793   
H69      H      0.321830000000     0.741550000000     0.279920000000     0.0478607  
H70      H      0.233630000000     0.694490000000     0.360440000000     0.0534265  
H71      H      0.274180000000     0.817450000000     0.093790000000     0.0513529  
H72      H      0.266880000000     0.824550000000     0.023690000000     0.0527822  
H73      H      0.232270000000     0.726970000000     0.115060000000     0.0457782  
H74      H      0.213050000000     0.696840000000     0.052480000000     0.0542493  
H75      H      0.208670000000     0.817950000000     0.025750000000     0.0421698  
H76      H      0.177350000000     0.742310000000     0.040510000000     0.0453562  
H77      H      0.231660000000     0.856670000000     0.083530000000     0.0558522  
H78      H      0.505950000000     0.749960000000     0.433960000000     0.0493172  
H79      H      0.548570000000     0.681000000000     0.430450000000     0.0518879  
H80      H      0.499290000000     0.777420000000     0.003310000000     0.0459797  
H81      H      0.540910000000     0.730010000000     0.048390000000     0.0578088  
H82      H      0.510750000000     0.652970000000     0.462190000000     0.0432592  
H83      H      0.507100000000     0.682880000000     0.037180000000     0.048316   
H84      H      0.472710000000     0.704780000000     0.417240000000     0.0570228  
H85      H      0.249530000000     0.306560000000     0.341450000000     0.050207   
H86      H      0.320030000000     0.343070000000     0.346580000000     0.0527345  
H87      H      0.256520000000     0.220960000000     0.379830000000     0.0458525  
H88      H      0.329690000000     0.217540000000     0.406890000000     0.0549074  
H89      H      0.346570000000     0.297500000000     0.322580000000     0.0435957  
H90      H      0.353870000000     0.223400000000     0.359340000000     0.0464482  
H91      H      0.274710000000     0.308100000000     0.294230000000     0.0528533  
H92      H      0.320110000000     0.272920000000     0.118520000000     0.0475732  
H93      H      0.299350000000     0.196510000000     0.133150000000     0.054112   
H94      H      0.242710000000     0.324040000000     0.101860000000     0.0444737  
H95      H      0.183360000000     0.274290000000     0.115800000000     0.0555546  
H96      H      0.270770000000     0.191970000000     0.087090000000     0.0456152  
H97      H      0.198900000000     0.236290000000     0.078040000000     0.0476753  
H98      H      0.335510000000     0.237130000000     0.079170000000     0.0553416  
H99      H      0.530770000000     0.288100000000     0.449120000000     0.0436981  
H100     H      0.494740000000     0.358840000000     0.434440000000     0.0494949  
H101     H      0.516580000000     0.267550000000     0.018070000000     0.0423131  
H102     H      0.477880000000     0.324780000000     0.056440000000     0.0592271  
H103     H      0.529330000000     0.387530000000     0.468660000000     0.0426195  
H104     H      0.520190000000     0.364330000000     0.045500000000     0.0513082  
H105     H      0.571400000000     0.328890000000     0.437120000000     0.0514355  
H106     H      0.259800000000     0.514040000000     0.476480000000     0.0461488  
H107     H      0.298190000000     0.554060000000     0.424320000000     0.0532662  
H108     H      0.298330000000     0.522040000000     0.039800000000     0.0429856  
H109     H      0.365230000000     0.566370000000     0.035090000000     0.0556106  
H110     H      0.345400000000     0.519270000000     0.430670000000     0.0439479  
H111     H      0.388260000000     0.527090000000     0.001560000000     0.0472914  
H112     H      0.278740000000     0.475480000000     0.440420000000     0.0549106  
H113     H      0.222050000000     0.006180000000     0.798820000000     0.0473392  
H114     H      0.157440000000     0.050450000000     0.783220000000     0.0520302  
H115     H      0.274780000000     0.012980000000     0.745760000000     0.0444505  
H116     H      0.249280000000     0.056440000000     0.688520000000     0.0577791  
H117     H      0.144430000000     0.015780000000     0.742080000000     0.0424213  
H118     H      0.204600000000     0.018520000000     0.681450000000     0.0492275  
H119     H      0.175810000000     0.969830000000     0.794680000000     0.051688   
H120     H      0.998950000000     0.781070000000     0.734500000000     0.0459208  
H121     H      0.050080000000     0.819130000000     0.778340000000     0.0528206  
H122     H      0.994500000000     0.819500000000     0.668270000000     0.0428297  
H123     H      0.043910000000     0.883160000000     0.665230000000     0.0540036  
H124     H      0.018440000000     0.869390000000     0.775440000000     0.0443971  
H125     H      0.015300000000     0.910430000000     0.704100000000     0.0460115  
H126     H      0.970710000000     0.803890000000     0.775570000000     0.0543388  
H127     H      0.881280000000     0.050230000000     0.706240000000     0.0442692  
H128     H      0.812230000000     0.010000000000     0.701320000000     0.0548711  
H129     H      0.915350000000     0.039080000000     0.774170000000     0.0396806  
H130     H      0.869620000000     0.991710000000     0.815800000000     0.0558336  
H131     H      0.789410000000     0.042260000000     0.740300000000     0.0491497  
H132     H      0.825300000000     0.030690000000     0.812050000000     0.0540577  
H133     H      0.837120000000     0.088750000000     0.699900000000     0.0536152  
H134     H      0.025230000000     0.178860000000     0.722570000000     0.0451723  
H135     H      0.976000000000     0.226950000000     0.685010000000     0.0511665  
H136     H      0.040460000000     0.220480000000     0.799140000000     0.0449809  
H137     H      0.992300000000     0.284020000000     0.799140000000     0.0581585  
H138     H      0.011940000000     0.273780000000     0.691250000000     0.0453193  
H139     H      0.018870000000     0.308910000000     0.757690000000     0.0486865  
H140     H      0.054440000000     0.206390000000     0.684050000000     0.0526186  
H141     H      0.812520000000     0.800310000000     0.898250000000     0.0444986  
H142     H      0.792160000000     0.721920000000     0.903220000000     0.0517129  
H143     H      0.743630000000     0.849440000000     0.890060000000     0.0433028  
H144     H      0.677850000000     0.803550000000     0.890360000000     0.0569873  
H145     H      0.767150000000     0.723710000000     0.855370000000     0.0449662  
H146     H      0.695390000000     0.774290000000     0.847500000000     0.0483836  
H147     H      0.832260000000     0.770530000000     0.856630000000     0.0538798  
H148     H      0.809570000000     0.774440000000     0.595950000000     0.0453085  
H149     H      0.805050000000     0.741990000000     0.662130000000     0.0512057  
H150     H      0.757740000000     0.841860000000     0.588510000000     0.0433327  
H151     H      0.721020000000     0.856030000000     0.650640000000     0.0586682  
H152     H      0.747710000000     0.731710000000     0.655590000000     0.0448809  
H153     H      0.695760000000     0.802080000000     0.649650000000     0.0498989  
H154     H      0.787190000000     0.719370000000     0.594250000000     0.0526944  
H155     H      0.799310000000     0.318770000000     0.881610000000     0.0462544  
H156     H      0.823550000000     0.331660000000     0.948240000000     0.0515971  
H157     H      0.743760000000     0.234880000000     0.883910000000     0.0448074  
H158     H      0.740290000000     0.217100000000     0.952580000000     0.0554029  
H159     H      0.847330000000     0.277040000000     0.951740000000     0.0437159  
H160     H      0.798260000000     0.210360000000     0.956870000000     0.0469782  
H161     H      0.855780000000     0.304320000000     0.885710000000     0.0552086  
H162     H      0.700990000000     0.292850000000     0.694690000000     0.0464264  
H163     H      0.700720000000     0.253050000000     0.632740000000     0.0575     
H164     H      0.748390000000     0.357650000000     0.690880000000     0.043167   
H165     H      0.786630000000     0.365780000000     0.628430000000     0.0567396  
H166     H      0.757380000000     0.239200000000     0.638180000000     0.0458761  
H167     H      0.813900000000     0.313410000000     0.636050000000     0.0488658  
H168     H      0.722750000000     0.238040000000     0.702560000000     0.0540328  
H169     H      0.656490000000     0.513730000000     0.961790000000     0.0424409  
H170     H      0.720930000000     0.560460000000     0.952700000000     0.0520921  
H171     H      0.629030000000     0.520740000000     0.533410000000     0.0399757  
H172     H      0.675920000000     0.570970000000     0.571460000000     0.0553716  
H173     H      0.750310000000     0.529760000000     0.989870000000     0.0455537  
H174     H      0.722530000000     0.536170000000     0.562910000000     0.0491916  
H175     H      0.703220000000     0.479650000000     0.952600000000     0.0525207  
H176     H      0.220660000000     0.752470000000     0.857050000000     0.0443891  
H177     H      0.203560000000     0.716960000000     0.795010000000     0.0530803  
H178     H      0.298080000000     0.807800000000     0.844590000000     0.0444394  
H179     H      0.314710000000     0.800710000000     0.775500000000     0.0566875  
H180     H      0.257030000000     0.692490000000     0.792950000000     0.044779   
H181     H      0.321830000000     0.741550000000     0.779920000000     0.0478558  
H182     H      0.233630000000     0.694490000000     0.860440000000     0.053371   
H183     H      0.274180000000     0.817450000000     0.593790000000     0.0513271  
H184     H      0.266880000000     0.824550000000     0.523680000000     0.052594   
H185     H      0.232270000000     0.726960000000     0.615060000000     0.0457596  
H186     H      0.213050000000     0.696840000000     0.552470000000     0.0541724  
H187     H      0.208670000000     0.817950000000     0.525750000000     0.0420395  
H188     H      0.177350000000     0.742310000000     0.540510000000     0.0452322  
H189     H      0.231660000000     0.856670000000     0.583530000000     0.0558045  
H190     H      0.505950000000     0.749960000000     0.933960000000     0.0492045  
H191     H      0.548570000000     0.681000000000     0.930460000000     0.0519171  
H192     H      0.499290000000     0.777430000000     0.503310000000     0.0457776  
H193     H      0.540910000000     0.730010000000     0.548390000000     0.0578275  
H194     H      0.510750000000     0.652970000000     0.962190000000     0.0431434  
H195     H      0.507100000000     0.682880000000     0.537180000000     0.0482299  
H196     H      0.472710000000     0.704780000000     0.917240000000     0.0570111  
H197     H      0.249530000000     0.306560000000     0.841460000000     0.0501574  
H198     H      0.320030000000     0.343070000000     0.846580000000     0.052709   
H199     H      0.256530000000     0.220960000000     0.879830000000     0.0457678  
H200     H      0.329690000000     0.217540000000     0.906890000000     0.0548063  
H201     H      0.346570000000     0.297500000000     0.822580000000     0.0435841  
H202     H      0.353870000000     0.223400000000     0.859340000000     0.0464216  
H203     H      0.274710000000     0.308100000000     0.794230000000     0.0528376  
H204     H      0.320110000000     0.272920000000     0.618520000000     0.0475577  
H205     H      0.299350000000     0.196510000000     0.633150000000     0.0540763  
H206     H      0.242710000000     0.324040000000     0.601860000000     0.0444399  
H207     H      0.183360000000     0.274290000000     0.615800000000     0.0555097  
H208     H      0.270770000000     0.191970000000     0.587090000000     0.0455227  
H209     H      0.198900000000     0.236290000000     0.578040000000     0.047582   
H210     H      0.335510000000     0.237130000000     0.579170000000     0.0552733  
H211     H      0.530780000000     0.288100000000     0.949120000000     0.0435245  
H212     H      0.494740000000     0.358830000000     0.934440000000     0.0495256  
H213     H      0.516580000000     0.267550000000     0.518060000000     0.0421385  
H214     H      0.477880000000     0.324780000000     0.556440000000     0.0592787  
H215     H      0.529330000000     0.387530000000     0.968660000000     0.0424843  
H216     H      0.520190000000     0.364330000000     0.545500000000     0.0512727  
H217     H      0.571400000000     0.328890000000     0.937120000000     0.0513286  
H218     H      0.259800000000     0.514040000000     0.976490000000     0.0459439  
H219     H      0.298190000000     0.554060000000     0.924310000000     0.0532389  
H220     H      0.298330000000     0.522040000000     0.539800000000     0.042857   
H221     H      0.365230000000     0.566380000000     0.535090000000     0.0556062  
H222     H      0.345400000000     0.519260000000     0.930670000000     0.0438805  
H223     H      0.388260000000     0.527090000000     0.501560000000     0.0470966  
H224     H      0.278740000000     0.475470000000     0.940420000000     0.0548706  
In1      In     0.350840000000     0.346450000000     0.482570000000     2.41208    
In2      In     0.331970000000     0.698490000000     0.466020000000     2.41878    
In3      In     0.693250000000     0.344110000000     0.520090000000     2.42717    
In4      In     0.681100000000     0.702960000000     0.496940000000     2.40916    
In5      In     0.855740000000     0.220200000000     0.270020000000     2.42566    
In6      In     0.833700000000     0.862500000000     0.245650000000     2.41343    
In7      In     0.183130000000     0.843970000000     0.214560000000     2.42092    
In8      In     0.196090000000     0.192420000000     0.234030000000     2.41072    
In9      In     0.350840000000     0.346450000000     0.982570000000     2.40935    
In10     In     0.331970000000     0.698490000000     0.966020000000     2.41678    
In11     In     0.693250000000     0.344110000000     0.020090000000     2.42971    
In12     In     0.681100000000     0.702960000000     0.996940000000     2.4068     
In13     In     0.855740000000     0.220200000000     0.770020000000     2.42565    
In14     In     0.833700000000     0.862500000000     0.745650000000     2.41312    
In15     In     0.183130000000     0.843970000000     0.714560000000     2.42076    
In16     In     0.196090000000     0.192420000000     0.734030000000     2.41103    
N1       N      0.221440000000     0.968300000000     0.246650000000    -0.165252   
N2       N      0.199260000000     0.057050000000     0.232800000000    -0.165207   
N3       N      0.305830000000     0.950910000000     0.170790000000    -0.0910131  
N4       N      0.961150000000     0.837830000000     0.219790000000    -0.165437   
N5       N      0.051270000000     0.854360000000     0.222920000000    -0.165353   
N6       N      0.932440000000     0.898210000000     0.127390000000    -0.095974   
N7       N      0.866570000000     0.085680000000     0.257900000000    -0.165726   
N8       N      0.837820000000     0.996870000000     0.259390000000    -0.164217   
N9       N      0.913200000000     0.093530000000     0.358820000000    -0.0929368  
N10      N      0.068440000000     0.228690000000     0.242960000000    -0.165372   
N11      N      0.980230000000     0.253800000000     0.243220000000    -0.163806   
N12      N      0.109840000000     0.302330000000     0.321250000000    -0.0952587  
N13      N      0.777570000000     0.814820000000     0.345930000000    -0.165465   
N14      N      0.732140000000     0.758910000000     0.398250000000    -0.164846   
N15      N      0.686600000000     0.889010000000     0.313930000000    -0.0925993  
N16      N      0.741760000000     0.773610000000     0.083720000000    -0.166204   
N17      N      0.763440000000     0.799890000000     0.160430000000    -0.165204   
N18      N      0.654280000000     0.855890000000     0.060880000000    -0.0915338  
N19      N      0.811040000000     0.249490000000     0.379080000000    -0.16393    
N20      N      0.778580000000     0.276920000000     0.451810000000    -0.165714   
N21      N      0.782320000000     0.130830000000     0.383580000000    -0.0934257  
N22      N      0.769480000000     0.291900000000     0.203190000000    -0.167477   
N23      N      0.746340000000     0.307130000000     0.124910000000    -0.163892   
N24      N      0.848880000000     0.383270000000     0.219830000000    -0.0949316  
N25      N      0.679030000000     0.478930000000     0.512210000000    -0.166169   
N26      N      0.700020000000     0.569990000000     0.012320000000    -0.164592   
N27      N      0.646910000000     0.465010000000     0.116810000000    -0.0943673  
N28      N      0.288480000000     0.739660000000     0.358480000000    -0.164635   
N29      N      0.256570000000     0.761950000000     0.283530000000    -0.165256   
N30      N      0.402670000000     0.776440000000     0.347570000000    -0.093809   
N31      N      0.211110000000     0.793470000000     0.107010000000    -0.164233   
N32      N      0.243570000000     0.758640000000     0.036640000000    -0.166441   
N33      N      0.125340000000     0.711620000000     0.127530000000    -0.0979887  
N34      N      0.461570000000     0.726790000000     0.976810000000    -0.164667   
N35      N      0.548530000000     0.701850000000     0.490950000000    -0.164977   
N36      N      0.429800000000     0.762760000000     0.076760000000    -0.0926801  
N37      N      0.271370000000     0.243600000000     0.322470000000    -0.165903   
N38      N      0.325800000000     0.282290000000     0.379990000000    -0.165006   
N39      N      0.293160000000     0.124870000000     0.344080000000    -0.0972072  
N40      N      0.281660000000     0.281790000000     0.067270000000    -0.164508   
N41      N      0.239660000000     0.233780000000     0.127640000000    -0.163596   
N42      N      0.185370000000     0.331330000000     0.018320000000    -0.0951382  
N43      N      0.566840000000     0.310400000000     0.998440000000    -0.166559   
N44      N      0.482810000000     0.345860000000     0.495850000000    -0.165799   
N45      N      0.572280000000     0.270530000000     0.101930000000    -0.091449   
N46      N      0.314100000000     0.475810000000     0.995620000000    -0.165764   
N47      N      0.335710000000     0.563840000000     0.477500000000    -0.164941   
N48      N      0.368760000000     0.462260000000     0.092660000000    -0.0947608  
N49      N      0.221440000000     0.968300000000     0.746650000000    -0.165266   
N50      N      0.199260000000     0.057050000000     0.732800000000    -0.165255   
N51      N      0.305830000000     0.950910000000     0.670790000000    -0.091064   
N52      N      0.961150000000     0.837830000000     0.719790000000    -0.165403   
N53      N      0.051270000000     0.854350000000     0.722920000000    -0.165362   
N54      N      0.932440000000     0.898210000000     0.627390000000    -0.0960633  
N55      N      0.866570000000     0.085680000000     0.757900000000    -0.16573    
N56      N      0.837820000000     0.996870000000     0.759390000000    -0.164236   
N57      N      0.913200000000     0.093530000000     0.858820000000    -0.0930124  
N58      N      0.068430000000     0.228690000000     0.742960000000    -0.165375   
N59      N      0.980230000000     0.253800000000     0.743220000000    -0.163816   
N60      N      0.109840000000     0.302330000000     0.821250000000    -0.0953196  
N61      N      0.777570000000     0.814820000000     0.845930000000    -0.165434   
N62      N      0.732130000000     0.758910000000     0.898240000000    -0.1648     
N63      N      0.686600000000     0.889020000000     0.813930000000    -0.0926244  
N64      N      0.741760000000     0.773620000000     0.583730000000    -0.16616    
N65      N      0.763440000000     0.799900000000     0.660430000000    -0.165138   
N66      N      0.654280000000     0.855890000000     0.560880000000    -0.0916759  
N67      N      0.811040000000     0.249490000000     0.879080000000    -0.163938   
N68      N      0.778580000000     0.276920000000     0.951810000000    -0.165784   
N69      N      0.782320000000     0.130830000000     0.883580000000    -0.0934909  
N70      N      0.769480000000     0.291900000000     0.703190000000    -0.167481   
N71      N      0.746340000000     0.307130000000     0.624910000000    -0.163913   
N72      N      0.848880000000     0.383270000000     0.719830000000    -0.0949683  
N73      N      0.679030000000     0.478930000000     0.012210000000    -0.165944   
N74      N      0.700020000000     0.569990000000     0.512320000000    -0.164819   
N75      N      0.646910000000     0.465010000000     0.616810000000    -0.0943899  
N76      N      0.288480000000     0.739660000000     0.858480000000    -0.164636   
N77      N      0.256570000000     0.761950000000     0.783530000000    -0.165259   
N78      N      0.402670000000     0.776440000000     0.847570000000    -0.0938448  
N79      N      0.211110000000     0.793470000000     0.607010000000    -0.1642     
N80      N      0.243570000000     0.758640000000     0.536640000000    -0.166357   
N81      N      0.125340000000     0.711620000000     0.627530000000    -0.0980534  
N82      N      0.461570000000     0.726790000000     0.476810000000    -0.16446    
N83      N      0.548530000000     0.701850000000     0.990950000000    -0.165182   
N84      N      0.429800000000     0.762760000000     0.576760000000    -0.0927457  
N85      N      0.271370000000     0.243600000000     0.822470000000    -0.165932   
N86      N      0.325800000000     0.282290000000     0.879980000000    -0.164968   
N87      N      0.293160000000     0.124870000000     0.844080000000    -0.097269   
N88      N      0.281660000000     0.281790000000     0.567260000000    -0.164612   
N89      N      0.239660000000     0.233780000000     0.627640000000    -0.163612   
N90      N      0.185370000000     0.331330000000     0.518320000000    -0.0953673  
N91      N      0.566840000000     0.310400000000     0.498440000000    -0.165637   
N92      N      0.482810000000     0.345860000000     0.995850000000    -0.16601    
N93      N      0.572280000000     0.270530000000     0.601930000000    -0.0915317  
N94      N      0.314100000000     0.475820000000     0.495630000000    -0.165526   
N95      N      0.335710000000     0.563840000000     0.977500000000    -0.165155   
N96      N      0.368760000000     0.462260000000     0.592660000000    -0.0948113  
O1       O      0.288580000000     0.334780000000     0.017770000000    -0.494228   
O2       O      0.342320000000     0.292070000000     0.028560000000    -0.490648   
O3       O      0.336370000000     0.345610000000     0.416630000000    -0.49043    
O4       O      0.312210000000     0.408140000000     0.464100000000    -0.491165   
O5       O      0.412870000000     0.338430000000     0.018790000000    -0.492922   
O6       O      0.353490000000     0.413160000000     0.013950000000    -0.497002   
O7       O      0.339660000000     0.283520000000     0.446550000000    -0.50365    
O8       O      0.420150000000     0.355720000000     0.458790000000    -0.505406   
O9       O      0.284090000000     0.696280000000     0.414580000000    -0.494192   
O10      O      0.336270000000     0.742290000000     0.411390000000    -0.489315   
O11      O      0.276060000000     0.696950000000     0.009890000000    -0.508163   
O12      O      0.348400000000     0.634850000000     0.000160000000    -0.499067   
O13      O      0.401340000000     0.700450000000     0.443360000000    -0.500313   
O14      O      0.319290000000     0.628430000000     0.443730000000    -0.493828   
O15      O      0.302850000000     0.759920000000     0.995440000000    -0.502256   
O16      O      0.390710000000     0.724870000000     0.000650000000    -0.488312   
O17      O      0.697850000000     0.298480000000     0.073600000000    -0.489881   
O18      O      0.740760000000     0.353900000000     0.071160000000    -0.499481   
O19      O      0.714470000000     0.282940000000     0.486020000000    -0.505651   
O20      O      0.635270000000     0.333160000000     0.478680000000    -0.50261    
O21      O      0.675400000000     0.411430000000     0.045500000000    -0.49842    
O22      O      0.626260000000     0.321330000000     0.039460000000    -0.490917   
O23      O      0.755480000000     0.339800000000     0.483870000000    -0.500629   
O24      O      0.697880000000     0.410380000000     0.486970000000    -0.4992     
O25      O      0.733550000000     0.712230000000     0.044010000000    -0.504194   
O26      O      0.688430000000     0.764590000000     0.035610000000    -0.489885   
O27      O      0.734850000000     0.710760000000     0.451250000000    -0.494959   
O28      O      0.701870000000     0.634470000000     0.475220000000    -0.492814   
O29      O      0.613650000000     0.715230000000     0.023240000000    -0.49023    
O30      O      0.679130000000     0.639300000000     0.033760000000    -0.500373   
O31      O      0.679040000000     0.752100000000     0.445450000000    -0.497313   
O32      O      0.616780000000     0.690290000000     0.465200000000    -0.503762   
O33      O      0.835750000000     0.282040000000     0.235030000000    -0.502957   
O34      O      0.790480000000     0.229160000000     0.237950000000    -0.501119   
O35      O      0.811990000000     0.207050000000     0.322630000000    -0.494006   
O36      O      0.846060000000     0.155720000000     0.236150000000    -0.498511   
O37      O      0.912830000000     0.224700000000     0.227770000000    -0.503434   
O38      O      0.875840000000     0.151430000000     0.292310000000    -0.496129   
O39      O      0.855650000000     0.261560000000     0.325750000000    -0.490882   
O40      O      0.922340000000     0.248920000000     0.285670000000    -0.487891   
O41      O      0.818470000000     0.802860000000     0.206750000000    -0.507785   
O42      O      0.778170000000     0.859820000000     0.200340000000    -0.489486   
O43      O      0.832530000000     0.817430000000     0.299940000000    -0.490967   
O44      O      0.901050000000     0.834530000000     0.260130000000    -0.491737   
O45      O      0.821660000000     0.933710000000     0.224080000000    -0.490145   
O46      O      0.892780000000     0.867190000000     0.205360000000    -0.496877   
O47      O      0.778180000000     0.859340000000     0.289920000000    -0.496778   
O48      O      0.850480000000     0.924900000000     0.280440000000    -0.506131   
O49      O      0.191750000000     0.782980000000     0.254270000000    -0.491321   
O50      O      0.247050000000     0.823870000000     0.244280000000    -0.506237   
O51      O      0.206170000000     0.851120000000     0.151280000000    -0.487221   
O52      O      0.116220000000     0.864400000000     0.190200000000    -0.506972   
O53      O      0.182420000000     0.903420000000     0.255880000000    -0.505715   
O54      O      0.118850000000     0.832840000000     0.246150000000    -0.496115   
O55      O      0.184420000000     0.787620000000     0.170200000000    -0.500687   
O56      O      0.221810000000     0.907680000000     0.205170000000    -0.484307   
O57      O      0.189450000000     0.233490000000     0.177630000000    -0.492424   
O58      O      0.248080000000     0.197020000000     0.186800000000    -0.488955   
O59      O      0.233500000000     0.186600000000     0.291950000000    -0.500993   
O60      O      0.139770000000     0.225340000000     0.266080000000    -0.498198   
O61      O      0.220800000000     0.126210000000     0.211000000000    -0.495036   
O62      O      0.126010000000     0.194920000000     0.211530000000    -0.497363   
O63      O      0.233990000000     0.249200000000     0.263320000000    -0.50172    
O64      O      0.173800000000     0.123950000000     0.256240000000    -0.49548    
O65      O      0.288580000000     0.334780000000     0.517770000000    -0.494869   
O66      O      0.342320000000     0.292070000000     0.528550000000    -0.491292   
O67      O      0.336370000000     0.345610000000     0.916630000000    -0.49021    
O68      O      0.312210000000     0.408140000000     0.964100000000    -0.49093    
O69      O      0.412870000000     0.338430000000     0.518790000000    -0.494012   
O70      O      0.353490000000     0.413150000000     0.513950000000    -0.498136   
O71      O      0.339660000000     0.283520000000     0.946550000000    -0.50362    
O72      O      0.420150000000     0.355720000000     0.958790000000    -0.505022   
O73      O      0.284090000000     0.696280000000     0.914580000000    -0.494175   
O74      O      0.336270000000     0.742290000000     0.911390000000    -0.489159   
O75      O      0.276060000000     0.696950000000     0.509890000000    -0.508487   
O76      O      0.348400000000     0.634860000000     0.500160000000    -0.500249   
O77      O      0.401340000000     0.700450000000     0.943360000000    -0.499988   
O78      O      0.319290000000     0.628430000000     0.943730000000    -0.493612   
O79      O      0.302850000000     0.759920000000     0.495440000000    -0.501484   
O80      O      0.390710000000     0.724870000000     0.500650000000    -0.489428   
O81      O      0.697850000000     0.298480000000     0.573600000000    -0.489788   
O82      O      0.740760000000     0.353900000000     0.571160000000    -0.499403   
O83      O      0.714470000000     0.282940000000     0.986020000000    -0.506243   
O84      O      0.635270000000     0.333150000000     0.978680000000    -0.503865   
O85      O      0.675400000000     0.411430000000     0.545500000000    -0.498024   
O86      O      0.626260000000     0.321330000000     0.539460000000    -0.490369   
O87      O      0.755480000000     0.339800000000     0.983870000000    -0.501186   
O88      O      0.697880000000     0.410380000000     0.986970000000    -0.500295   
O89      O      0.733550000000     0.712220000000     0.544010000000    -0.504598   
O90      O      0.688430000000     0.764590000000     0.535610000000    -0.490339   
O91      O      0.734850000000     0.710750000000     0.951250000000    -0.494773   
O92      O      0.701870000000     0.634470000000     0.975220000000    -0.493286   
O93      O      0.613650000000     0.715230000000     0.523240000000    -0.491312   
O94      O      0.679130000000     0.639300000000     0.533760000000    -0.500623   
O95      O      0.679040000000     0.752100000000     0.945450000000    -0.497179   
O96      O      0.616780000000     0.690290000000     0.965200000000    -0.503403   
O97      O      0.835750000000     0.282040000000     0.735030000000    -0.502971   
O98      O      0.790480000000     0.229160000000     0.737950000000    -0.501131   
O99      O      0.811990000000     0.207050000000     0.822630000000    -0.494009   
O100     O      0.846060000000     0.155720000000     0.736150000000    -0.498501   
O101     O      0.912830000000     0.224700000000     0.727770000000    -0.503467   
O102     O      0.875840000000     0.151430000000     0.792310000000    -0.496166   
O103     O      0.855650000000     0.261560000000     0.825750000000    -0.490899   
O104     O      0.922340000000     0.248920000000     0.785670000000    -0.487914   
O105     O      0.818470000000     0.802850000000     0.706750000000    -0.507668   
O106     O      0.778170000000     0.859820000000     0.700340000000    -0.489486   
O107     O      0.832530000000     0.817430000000     0.799940000000    -0.491003   
O108     O      0.901050000000     0.834530000000     0.760130000000    -0.491669   
O109     O      0.821660000000     0.933710000000     0.724080000000    -0.490114   
O110     O      0.892780000000     0.867190000000     0.705350000000    -0.496731   
O111     O      0.778180000000     0.859340000000     0.789920000000    -0.496817   
O112     O      0.850480000000     0.924900000000     0.780440000000    -0.506158   
O113     O      0.191750000000     0.782980000000     0.754270000000    -0.491329   
O114     O      0.247050000000     0.823870000000     0.744280000000    -0.506236   
O115     O      0.206170000000     0.851120000000     0.651280000000    -0.487197   
O116     O      0.116220000000     0.864400000000     0.690200000000    -0.506996   
O117     O      0.182420000000     0.903420000000     0.755880000000    -0.505724   
O118     O      0.118850000000     0.832840000000     0.746150000000    -0.496128   
O119     O      0.184420000000     0.787610000000     0.670200000000    -0.500508   
O120     O      0.221810000000     0.907680000000     0.705170000000    -0.484312   
O121     O      0.189450000000     0.233490000000     0.677630000000    -0.492479   
O122     O      0.248080000000     0.197020000000     0.686800000000    -0.488992   
O123     O      0.233500000000     0.186600000000     0.791940000000    -0.501169   
O124     O      0.139770000000     0.225340000000     0.766080000000    -0.498281   
O125     O      0.220800000000     0.126210000000     0.711000000000    -0.495125   
O126     O      0.126010000000     0.194920000000     0.711540000000    -0.497564   
O127     O      0.233990000000     0.249200000000     0.763320000000    -0.501764   
O128     O      0.173800000000     0.123950000000     0.756230000000    -0.495663   


