data_structure

_audit_creation_method RASPA-1.0
_audit_creation_date 2023-5-22
_audit_author_name 'Poobodin Mano'

_cell_length_a    52.0338
_cell_length_b    51.0696
_cell_length_c    34.1125
_cell_angle_alpha 90.0309
_cell_angle_beta  89.9969
_cell_angle_gamma 120.036
_cell_volume      78475.6

_symmetry_cell_setting          triclinic
_symmetry_space_group_name_Hall 'P 1'
_symmetry_space_group_name_H-M  'P 1'
_symmetry_Int_Tables_number     1

_symmetry_equiv_pos_as_xyz 'x,y,z'

loop_
_atom_site_label
_atom_site_type_symbol
_atom_site_fract_x
_atom_site_fract_y
_atom_site_fract_z
_atom_site_charge
C1       C      0.461400000000     0.227260000000     0.538570000000     0.402562   
C2       C      0.501920000000     0.236540000000     0.660980000000     0.408545   
C3       C      0.557310000000     0.283850000000     0.569830000000     0.404052   
C4       C      0.483280000000     0.304100000000     0.602360000000     0.414595   
C5       C      0.359860000000     0.275190000000     0.225450000000     0.401574   
C6       C      0.371920000000     0.281560000000     0.362310000000     0.401554   
C7       C      0.307130000000     0.292190000000     0.305260000000     0.408239   
C8       C      0.313230000000     0.201050000000     0.298170000000     0.409301   
C9       C      0.312400000000     0.367000000000     0.664800000000     0.401634   
C10      C      0.249140000000     0.341790000000     0.558020000000     0.399275   
C11      C      0.307500000000     0.302520000000     0.587630000000     0.405864   
C12      C      0.220930000000     0.289650000000     0.650330000000     0.409148   
C13      C      0.218850000000     0.419360000000     0.279170000000     0.403758   
C14      C      0.170970000000     0.395160000000     0.396070000000     0.415891   
C15      C      0.262520000000     0.428770000000     0.390530000000     0.403396   
C16      C      0.228110000000     0.491520000000     0.362130000000     0.409441   
C17      C      0.242840000000     0.440110000000     0.999030000000     0.41096    
C18      C      0.256450000000     0.440270000000     0.868630000000     0.410342   
C19      C      0.185880000000     0.452540000000     0.918590000000     0.408012   
C20      C      0.281010000000     0.524980000000     0.929440000000     0.409113   
C21      C      0.432520000000     0.310000000000     0.991100000000     0.402159   
C22      C      0.438190000000     0.266760000000     0.885920000000     0.416782   
C23      C      0.506730000000     0.292090000000     0.973490000000     0.401428   
C24      C      0.420150000000     0.217220000000     0.003710000000     0.412822   
C25      C      0.291850000000     0.577650000000     0.939160000000     0.0141853  
C26      C      0.415340000000     0.167830000000     0.020120000000     0.0163127  
C27      C      0.375570000000     0.178320000000     0.038330000000     0.0158683  
C28      C      0.395660000000     0.142670000000     0.991410000000    -0.0996705  
C29      C      0.308840000000     0.095950000000     0.975320000000    -0.100702   
C30      C      0.352830000000     0.153980000000     0.010930000000    -0.0996722  
C31      C      0.342140000000     0.106840000000     0.973740000000     0.0180623  
C32      C      0.362470000000     0.132510000000     0.993440000000     0.0173914  
C33      C      0.332290000000     0.567510000000     0.920940000000     0.0160066  
C34      C      0.351060000000     0.084850000000     0.956410000000    -0.101186   
C35      C      0.138480000000     0.424230000000     0.882920000000     0.0158126  
C36      C      0.553500000000     0.325990000000     0.008420000000     0.0153895  
C37      C      0.554830000000     0.303470000000     0.944980000000     0.0165591  
C38      C      0.570160000000     0.358310000000     0.992140000000    -0.100058   
C39      C      0.120530000000     0.391790000000     0.898150000000    -0.099314   
C40      C      0.570630000000     0.334010000000     0.924050000000    -0.100174   
C41      C      0.106650000000     0.389010000000     0.938780000000     0.0173347  
C42      C      0.084830000000     0.361180000000     0.952060000000     0.0173042  
C43      C      0.139730000000     0.446830000000     0.947150000000     0.0160288  
C44      C      0.121250000000     0.416010000000     0.967100000000    -0.0998422  
C45      C      0.193150000000     0.401980000000     0.215200000000     0.0133324  
C46      C      0.268030000000     0.444970000000     0.061580000000     0.0155008  
C47      C      0.215000000000     0.402470000000     0.050490000000     0.014888   
C48      C      0.264090000000     0.428830000000     0.101010000000    -0.103629   
C49      C      0.203290000000     0.419800000000     0.176770000000    -0.101084   
C50      C      0.207840000000     0.409140000000     0.091580000000    -0.102364   
C51      C      0.230290000000     0.419780000000     0.159170000000     0.0172966  
C52      C      0.234030000000     0.419640000000     0.119390000000     0.0182617  
C53      C      0.243250000000     0.407530000000     0.225390000000     0.0137256  
C54      C      0.255210000000     0.425920000000     0.187690000000    -0.101287   
C55      C      0.266120000000     0.439550000000     0.797730000000     0.0151635  
C56      C      0.337120000000     0.380130000000     0.729480000000     0.0169537  
C57      C      0.339360000000     0.420170000000     0.687080000000     0.0155458  
C58      C      0.318820000000     0.384640000000     0.761130000000    -0.0997089  
C59      C      0.295870000000     0.446560000000     0.779850000000    -0.101946   
C60      C      0.320690000000     0.427430000000     0.714980000000    -0.0992184  
C61      C      0.301440000000     0.420040000000     0.784370000000     0.0186341  
C62      C      0.314800000000     0.412190000000     0.755380000000     0.0180666  
C63      C      0.266060000000     0.400740000000     0.842400000000     0.0142417  
C64      C      0.295550000000     0.406090000000     0.825390000000    -0.101611   
C65      C      0.217280000000     0.327960000000     0.498980000000     0.0116922  
C66      C      0.143140000000     0.383600000000     0.457870000000     0.0181298  
C67      C      0.136790000000     0.342230000000     0.415040000000     0.0170669  
C68      C      0.161780000000     0.378540000000     0.488280000000    -0.0990645  
C69      C      0.183850000000     0.315660000000     0.503580000000    -0.100039   
C70      C      0.152850000000     0.331880000000     0.443460000000    -0.0983889  
C71      C      0.178240000000     0.341990000000     0.509040000000     0.0169134  
C72      C      0.163460000000     0.349640000000     0.482130000000     0.0210361  
C73      C      0.228100000000     0.373900000000     0.538880000000     0.0105599  
C74      C      0.194750000000     0.361700000000     0.544180000000    -0.0993994  
C75      C      0.320290000000     0.157120000000     0.307200000000     0.0155423  
C76      C      0.211220000000     0.528590000000     0.351580000000     0.0142031  
C77      C      0.256280000000     0.542610000000     0.391100000000     0.0154723  
C78      C      0.227430000000     0.057610000000     0.326990000000    -0.100274   
C79      C      0.304380000000     0.132890000000     0.338360000000    -0.101293   
C80      C      0.275880000000     0.070130000000     0.365910000000    -0.100417   
C81      C      0.272290000000     0.110260000000     0.327230000000     0.017916   
C82      C      0.258380000000     0.081160000000     0.341730000000     0.0172295  
C83      C      0.272890000000     0.149870000000     0.279660000000     0.0145994  
C84      C      0.254530000000     0.122930000000     0.306950000000    -0.10132    
C85      C      0.276300000000     0.398750000000     0.432970000000     0.0159171  
C86      C      0.303660000000     0.337570000000     0.290040000000     0.0158491  
C87      C      0.268580000000     0.299670000000     0.337420000000     0.014564   
C88      C      0.316250000000     0.362740000000     0.320690000000    -0.100657   
C89      C      0.272670000000     0.371420000000     0.409770000000    -0.0992562  
C90      C      0.278530000000     0.323300000000     0.370290000000    -0.10083    
C91      C      0.294460000000     0.379020000000     0.375510000000     0.0181487  
C92      C      0.294910000000     0.355990000000     0.355090000000     0.0175638  
C93      C      0.312850000000     0.435760000000     0.387340000000     0.0172562  
C94      C      0.311970000000     0.411610000000     0.359890000000    -0.0999019  
C95      C      0.352330000000     0.269620000000     0.153620000000     0.0135845  
C96      C      0.443540000000     0.354020000000     0.032650000000     0.0161972  
C97      C      0.393450000000     0.322580000000     0.005470000000     0.016525   
C98      C      0.433430000000     0.344750000000     0.075040000000    -0.0993834  
C99      C      0.355760000000     0.295190000000     0.126760000000    -0.101396   
C100     C      0.379250000000     0.310250000000     0.045520000000    -0.0998294  
C101     C      0.388520000000     0.316960000000     0.118250000000     0.0182271  
C102     C      0.399760000000     0.325000000000     0.080920000000     0.018038   
C103     C      0.403190000000     0.303010000000     0.181630000000     0.0132528  
C104     C      0.407580000000     0.329120000000     0.155090000000    -0.101369   
C105     C      0.522060000000     0.244010000000     0.727570000000     0.0190867  
C106     C      0.414570000000     0.236490000000     0.826250000000     0.0157811  
C107     C      0.457070000000     0.288470000000     0.820790000000     0.0177578  
C108     C      0.431820000000     0.222870000000     0.806630000000    -0.100255   
C109     C      0.507650000000     0.259150000000     0.749830000000    -0.100056   
C110     C      0.478110000000     0.278070000000     0.805740000000    -0.100716   
C111     C      0.475460000000     0.237100000000     0.761670000000     0.0181085  
C112     C      0.461520000000     0.246170000000     0.788120000000     0.0179747  
C113     C      0.475160000000     0.197870000000     0.711950000000     0.0143122  
C114     C      0.457420000000     0.206900000000     0.739610000000    -0.0990602  
C115     C      0.179800000000     0.289150000000     0.686170000000     0.0157614  
C116     C      0.595650000000     0.274430000000     0.541410000000     0.0157003  
C117     C      0.610310000000     0.320820000000     0.579570000000     0.0154211  
C118     C      0.608870000000     0.262140000000     0.571370000000    -0.0996994  
C119     C      0.165840000000     0.301660000000     0.657740000000    -0.0985585  
C120     C      0.623310000000     0.311200000000     0.613120000000    -0.100202   
C121     C      0.147470000000     0.279570000000     0.624900000000     0.0147006  
C122     C      0.128880000000     0.285260000000     0.602290000000     0.0160762  
C123     C      0.170240000000     0.246320000000     0.643890000000     0.0151187  
C124     C      0.153980000000     0.254400000000     0.612860000000    -0.0988571  
C125     C      0.469410000000     0.339940000000     0.573790000000     0.0139677  
C126     C      0.329170000000     0.269750000000     0.597990000000     0.0158944  
C127     C      0.343780000000     0.303010000000     0.539800000000     0.0140779  
C128     C      0.360260000000     0.285950000000     0.615580000000    -0.100437   
C129     C      0.436940000000     0.325760000000     0.560040000000    -0.0994861  
C130     C      0.376900000000     0.318290000000     0.550670000000    -0.100338   
C131     C      0.413440000000     0.311980000000     0.592660000000     0.0159709  
C132     C      0.384410000000     0.304000000000     0.585190000000     0.0164035  
C133     C      0.454210000000     0.320780000000     0.641110000000     0.0171162  
C134     C      0.421410000000     0.301780000000     0.630740000000    -0.100066   
C135     C      0.377470000000     0.283730000000     0.434500000000     0.015757   
C136     C      0.450020000000     0.215560000000     0.468670000000     0.0161223  
C137     C      0.409530000000     0.201720000000     0.515800000000     0.0142401  
C138     C      0.447090000000     0.241350000000     0.450690000000    -0.0991388  
C139     C      0.380650000000     0.257780000000     0.451770000000    -0.100301   
C140     C      0.402550000000     0.225760000000     0.500550000000    -0.0985581  
C141     C      0.410070000000     0.259020000000     0.441910000000     0.0174527  
C142     C      0.418460000000     0.241210000000     0.462180000000     0.0158322  
C143     C      0.421390000000     0.301010000000     0.392080000000     0.0161257  
C144     C      0.426720000000     0.275380000000     0.404460000000    -0.100149   
C145     C      0.461400000000     0.727260000000     0.538570000000     0.402479   
C146     C      0.501930000000     0.736540000000     0.660980000000     0.408256   
C147     C      0.557310000000     0.783850000000     0.569830000000     0.404057   
C148     C      0.483280000000     0.804100000000     0.602360000000     0.414585   
C149     C      0.359870000000     0.775190000000     0.225450000000     0.401614   
C150     C      0.371920000000     0.781560000000     0.362310000000     0.401587   
C151     C      0.307130000000     0.792190000000     0.305260000000     0.408227   
C152     C      0.313230000000     0.701050000000     0.298170000000     0.409294   
C153     C      0.312400000000     0.867000000000     0.664800000000     0.401644   
C154     C      0.249140000000     0.841790000000     0.558020000000     0.399266   
C155     C      0.307500000000     0.802520000000     0.587630000000     0.405875   
C156     C      0.220930000000     0.789650000000     0.650330000000     0.409135   
C157     C      0.218850000000     0.919360000000     0.279170000000     0.40374    
C158     C      0.170970000000     0.895160000000     0.396070000000     0.415885   
C159     C      0.262530000000     0.928770000000     0.390530000000     0.403331   
C160     C      0.228110000000     0.991520000000     0.362130000000     0.408927   
C161     C      0.242840000000     0.940110000000     0.999030000000     0.410766   
C162     C      0.256450000000     0.940270000000     0.868630000000     0.410307   
C163     C      0.185880000000     0.952540000000     0.918590000000     0.407961   
C164     C      0.281010000000     0.024980000000     0.929440000000     0.409049   
C165     C      0.432520000000     0.810000000000     0.991100000000     0.402255   
C166     C      0.438190000000     0.766760000000     0.885920000000     0.416965   
C167     C      0.506720000000     0.792090000000     0.973490000000     0.401473   
C168     C      0.420150000000     0.717220000000     0.003710000000     0.412821   
C169     C      0.291850000000     0.077650000000     0.939160000000     0.0142731  
C170     C      0.415340000000     0.667830000000     0.020120000000     0.0163061  
C171     C      0.375570000000     0.678320000000     0.038330000000     0.0158657  
C172     C      0.395660000000     0.642670000000     0.991410000000    -0.0996531  
C173     C      0.308840000000     0.595950000000     0.975320000000    -0.10066    
C174     C      0.352830000000     0.653980000000     0.010930000000    -0.099662   
C175     C      0.342140000000     0.606840000000     0.973740000000     0.0180195  
C176     C      0.362470000000     0.632510000000     0.993440000000     0.0173575  
C177     C      0.332290000000     0.067510000000     0.920940000000     0.0159304  
C178     C      0.351060000000     0.584850000000     0.956410000000    -0.101193   
C179     C      0.138480000000     0.924240000000     0.882920000000     0.0158175  
C180     C      0.553500000000     0.825990000000     0.008420000000     0.0153547  
C181     C      0.554830000000     0.803470000000     0.944980000000     0.0165403  
C182     C      0.570160000000     0.858300000000     0.992140000000    -0.0999139  
C183     C      0.120530000000     0.891780000000     0.898150000000    -0.0994113  
C184     C      0.570630000000     0.834010000000     0.924050000000    -0.100147   
C185     C      0.106650000000     0.889010000000     0.938780000000     0.0173426  
C186     C      0.084830000000     0.861180000000     0.952060000000     0.0172623  
C187     C      0.139730000000     0.946830000000     0.947150000000     0.0161048  
C188     C      0.121250000000     0.916020000000     0.967100000000    -0.0998717  
C189     C      0.193150000000     0.901980000000     0.215200000000     0.0133134  
C190     C      0.268030000000     0.944970000000     0.061580000000     0.0155434  
C191     C      0.215000000000     0.902470000000     0.050490000000     0.014882   
C192     C      0.264090000000     0.928830000000     0.101010000000    -0.103649   
C193     C      0.203290000000     0.919800000000     0.176770000000    -0.101054   
C194     C      0.207840000000     0.909140000000     0.091580000000    -0.102391   
C195     C      0.230290000000     0.919780000000     0.159170000000     0.0172418  
C196     C      0.234030000000     0.919640000000     0.119390000000     0.0182467  
C197     C      0.243250000000     0.907530000000     0.225390000000     0.013703   
C198     C      0.255210000000     0.925920000000     0.187690000000    -0.101254   
C199     C      0.266120000000     0.939550000000     0.797730000000     0.0151373  
C200     C      0.337120000000     0.880140000000     0.729480000000     0.0170317  
C201     C      0.339360000000     0.920170000000     0.687080000000     0.0155514  
C202     C      0.318820000000     0.884640000000     0.761130000000    -0.0997282  
C203     C      0.295870000000     0.946560000000     0.779850000000    -0.101915   
C204     C      0.320690000000     0.927430000000     0.714980000000    -0.0992059  
C205     C      0.301440000000     0.920040000000     0.784370000000     0.0185977  
C206     C      0.314800000000     0.912200000000     0.755380000000     0.0180242  
C207     C      0.266060000000     0.900740000000     0.842400000000     0.0142235  
C208     C      0.295550000000     0.906090000000     0.825390000000    -0.10159    
C209     C      0.217280000000     0.827960000000     0.498980000000     0.0116507  
C210     C      0.143140000000     0.883600000000     0.457870000000     0.0181253  
C211     C      0.136790000000     0.842230000000     0.415040000000     0.0170643  
C212     C      0.161780000000     0.878540000000     0.488280000000    -0.0990379  
C213     C      0.183850000000     0.815670000000     0.503580000000    -0.0999358  
C214     C      0.152850000000     0.831880000000     0.443460000000    -0.0983796  
C215     C      0.178240000000     0.842000000000     0.509040000000     0.0169101  
C216     C      0.163460000000     0.849640000000     0.482130000000     0.0210302  
C217     C      0.228100000000     0.873900000000     0.538880000000     0.0105611  
C218     C      0.194750000000     0.861690000000     0.544180000000    -0.0993708  
C219     C      0.320290000000     0.657120000000     0.307200000000     0.0155465  
C220     C      0.211220000000     0.028590000000     0.351580000000     0.0142116  
C221     C      0.256280000000     0.042610000000     0.391100000000     0.0154745  
C222     C      0.227430000000     0.557620000000     0.326990000000    -0.100323   
C223     C      0.304380000000     0.632890000000     0.338360000000    -0.101298   
C224     C      0.275880000000     0.570130000000     0.365910000000    -0.100439   
C225     C      0.272290000000     0.610260000000     0.327230000000     0.0178798  
C226     C      0.258390000000     0.581160000000     0.341730000000     0.0172108  
C227     C      0.272890000000     0.649870000000     0.279660000000     0.0145961  
C228     C      0.254530000000     0.622930000000     0.306950000000    -0.101303   
C229     C      0.276300000000     0.898750000000     0.432970000000     0.0159699  
C230     C      0.303660000000     0.837580000000     0.290040000000     0.0157436  
C231     C      0.268580000000     0.799670000000     0.337420000000     0.0145349  
C232     C      0.316250000000     0.862740000000     0.320690000000    -0.100606   
C233     C      0.272670000000     0.871420000000     0.409770000000    -0.0993421  
C234     C      0.278530000000     0.823300000000     0.370290000000    -0.100744   
C235     C      0.294460000000     0.879020000000     0.375510000000     0.0181801  
C236     C      0.294910000000     0.855990000000     0.355090000000     0.0175121  
C237     C      0.312850000000     0.935760000000     0.387340000000     0.0172957  
C238     C      0.311970000000     0.911610000000     0.359890000000    -0.0999427  
C239     C      0.352330000000     0.769620000000     0.153620000000     0.0136248  
C240     C      0.443540000000     0.854010000000     0.032650000000     0.0163452  
C241     C      0.393450000000     0.822580000000     0.005470000000     0.016465   
C242     C      0.433430000000     0.844750000000     0.075040000000    -0.0994342  
C243     C      0.355760000000     0.795200000000     0.126760000000    -0.10146    
C244     C      0.379250000000     0.810240000000     0.045520000000    -0.0998304  
C245     C      0.388520000000     0.816960000000     0.118250000000     0.0182405  
C246     C      0.399760000000     0.825000000000     0.080920000000     0.0180238  
C247     C      0.403190000000     0.803010000000     0.181630000000     0.0132534  
C248     C      0.407580000000     0.829120000000     0.155090000000    -0.101365   
C249     C      0.522060000000     0.744010000000     0.727570000000     0.0190807  
C250     C      0.414560000000     0.736490000000     0.826250000000     0.0156791  
C251     C      0.457070000000     0.788470000000     0.820790000000     0.017769   
C252     C      0.431820000000     0.722870000000     0.806630000000    -0.100195   
C253     C      0.507650000000     0.759150000000     0.749830000000    -0.100051   
C254     C      0.478110000000     0.778070000000     0.805740000000    -0.100707   
C255     C      0.475460000000     0.737100000000     0.761670000000     0.0181143  
C256     C      0.461520000000     0.746170000000     0.788120000000     0.0179531  
C257     C      0.475160000000     0.697870000000     0.711950000000     0.0143557  
C258     C      0.457420000000     0.706900000000     0.739610000000    -0.0990669  
C259     C      0.179800000000     0.789150000000     0.686170000000     0.0157515  
C260     C      0.595650000000     0.774440000000     0.541410000000     0.0157783  
C261     C      0.610320000000     0.820820000000     0.579570000000     0.01546    
C262     C      0.608870000000     0.762140000000     0.571370000000    -0.0997255  
C263     C      0.165840000000     0.801660000000     0.657740000000    -0.0985122  
C264     C      0.623310000000     0.811200000000     0.613120000000    -0.100221   
C265     C      0.147470000000     0.779570000000     0.624900000000     0.0147222  
C266     C      0.128880000000     0.785260000000     0.602290000000     0.0160725  
C267     C      0.170250000000     0.746320000000     0.643890000000     0.0150949  
C268     C      0.153980000000     0.754410000000     0.612860000000    -0.098875   
C269     C      0.469410000000     0.839940000000     0.573790000000     0.0139768  
C270     C      0.329170000000     0.769740000000     0.597990000000     0.0157828  
C271     C      0.343780000000     0.803010000000     0.539800000000     0.0140683  
C272     C      0.360260000000     0.785950000000     0.615580000000    -0.100373   
C273     C      0.436940000000     0.825760000000     0.560040000000    -0.0994917  
C274     C      0.376900000000     0.818290000000     0.550670000000    -0.100307   
C275     C      0.413440000000     0.811980000000     0.592660000000     0.0159754  
C276     C      0.384410000000     0.803990000000     0.585190000000     0.0163604  
C277     C      0.454210000000     0.820780000000     0.641110000000     0.0171189  
C278     C      0.421410000000     0.801780000000     0.630740000000    -0.100067   
C279     C      0.377470000000     0.783730000000     0.434500000000     0.0157633  
C280     C      0.450010000000     0.715560000000     0.468670000000     0.0161707  
C281     C      0.409530000000     0.701730000000     0.515800000000     0.0143675  
C282     C      0.447090000000     0.741350000000     0.450690000000    -0.0991696  
C283     C      0.380650000000     0.757780000000     0.451770000000    -0.100293   
C284     C      0.402550000000     0.725760000000     0.500550000000    -0.0986132  
C285     C      0.410070000000     0.759020000000     0.441910000000     0.0174398  
C286     C      0.418460000000     0.741210000000     0.462180000000     0.0158492  
C287     C      0.421390000000     0.801010000000     0.392080000000     0.0161552  
C288     C      0.426720000000     0.775380000000     0.404460000000    -0.100141   
C289     C      0.961400000000     0.227260000000     0.538570000000     0.402153   
C290     C      0.001930000000     0.236540000000     0.660980000000     0.404992   
C291     C      0.057310000000     0.283850000000     0.569830000000     0.403942   
C292     C      0.983280000000     0.304100000000     0.602360000000     0.414231   
C293     C      0.859860000000     0.275190000000     0.225450000000     0.401581   
C294     C      0.871920000000     0.281560000000     0.362310000000     0.401561   
C295     C      0.807130000000     0.292190000000     0.305260000000     0.40824    
C296     C      0.813230000000     0.201050000000     0.298170000000     0.409289   
C297     C      0.812400000000     0.367000000000     0.664800000000     0.401641   
C298     C      0.749140000000     0.341790000000     0.558020000000     0.39927    
C299     C      0.807500000000     0.302520000000     0.587630000000     0.405866   
C300     C      0.720930000000     0.289650000000     0.650330000000     0.40915    
C301     C      0.718850000000     0.419360000000     0.279170000000     0.403757   
C302     C      0.670970000000     0.395160000000     0.396070000000     0.415938   
C303     C      0.762520000000     0.428770000000     0.390530000000     0.403401   
C304     C      0.728110000000     0.491520000000     0.362130000000     0.409445   
C305     C      0.742840000000     0.440110000000     0.999030000000     0.410964   
C306     C      0.756450000000     0.440270000000     0.868630000000     0.410349   
C307     C      0.685880000000     0.452540000000     0.918590000000     0.408023   
C308     C      0.781010000000     0.524980000000     0.929440000000     0.40914    
C309     C      0.932520000000     0.310000000000     0.991100000000     0.402291   
C310     C      0.938190000000     0.266760000000     0.885920000000     0.416634   
C311     C      0.006730000000     0.292090000000     0.973490000000     0.395165   
C312     C      0.920150000000     0.217220000000     0.003710000000     0.412817   
C313     C      0.791850000000     0.577650000000     0.939160000000     0.0142597  
C314     C      0.915340000000     0.167830000000     0.020120000000     0.0162815  
C315     C      0.875570000000     0.178320000000     0.038330000000     0.0158608  
C316     C      0.895660000000     0.142670000000     0.991410000000    -0.0996749  
C317     C      0.808840000000     0.095950000000     0.975320000000    -0.100714   
C318     C      0.852830000000     0.153980000000     0.010930000000    -0.0996809  
C319     C      0.842140000000     0.106840000000     0.973740000000     0.0180871  
C320     C      0.862470000000     0.132510000000     0.993440000000     0.0174141  
C321     C      0.832290000000     0.567510000000     0.920940000000     0.0159262  
C322     C      0.851060000000     0.084850000000     0.956410000000    -0.101215   
C323     C      0.638480000000     0.424230000000     0.882920000000     0.015804   
C324     C      0.053500000000     0.325990000000     0.008420000000     0.015023   
C325     C      0.054830000000     0.303470000000     0.944980000000     0.0161831  
C326     C      0.070160000000     0.358310000000     0.992140000000    -0.0998945  
C327     C      0.620530000000     0.391790000000     0.898150000000    -0.0993184  
C328     C      0.070630000000     0.334010000000     0.924050000000    -0.100004   
C329     C      0.606650000000     0.389010000000     0.938780000000     0.0174075  
C330     C      0.584830000000     0.361180000000     0.952060000000     0.0175275  
C331     C      0.639730000000     0.446830000000     0.947150000000     0.016021   
C332     C      0.621250000000     0.416010000000     0.967100000000    -0.0998479  
C333     C      0.693150000000     0.401980000000     0.215200000000     0.0133145  
C334     C      0.768030000000     0.444970000000     0.061580000000     0.0154987  
C335     C      0.715000000000     0.402470000000     0.050490000000     0.0149079  
C336     C      0.764090000000     0.428830000000     0.101010000000    -0.103645   
C337     C      0.703290000000     0.419800000000     0.176770000000    -0.101088   
C338     C      0.707840000000     0.409140000000     0.091580000000    -0.102396   
C339     C      0.730290000000     0.419780000000     0.159170000000     0.0173196  
C340     C      0.734030000000     0.419640000000     0.119390000000     0.0182925  
C341     C      0.743250000000     0.407530000000     0.225390000000     0.0137235  
C342     C      0.755210000000     0.425920000000     0.187690000000    -0.101299   
C343     C      0.766120000000     0.439550000000     0.797730000000     0.0151652  
C344     C      0.837120000000     0.380130000000     0.729480000000     0.0169379  
C345     C      0.839360000000     0.420170000000     0.687080000000     0.0155261  
C346     C      0.818820000000     0.384640000000     0.761130000000    -0.0997101  
C347     C      0.795870000000     0.446560000000     0.779850000000    -0.101968   
C348     C      0.820690000000     0.427430000000     0.714980000000    -0.0992169  
C349     C      0.801440000000     0.420040000000     0.784370000000     0.0186679  
C350     C      0.814800000000     0.412190000000     0.755380000000     0.018099   
C351     C      0.766060000000     0.400740000000     0.842400000000     0.014244   
C352     C      0.795550000000     0.406090000000     0.825390000000    -0.101632   
C353     C      0.717280000000     0.327960000000     0.498980000000     0.0116906  
C354     C      0.643140000000     0.383600000000     0.457870000000     0.0180988  
C355     C      0.636790000000     0.342230000000     0.415040000000     0.0170553  
C356     C      0.661780000000     0.378540000000     0.488280000000    -0.0990613  
C357     C      0.683850000000     0.315660000000     0.503580000000    -0.100053   
C358     C      0.652850000000     0.331880000000     0.443460000000    -0.0984651  
C359     C      0.678240000000     0.341990000000     0.509040000000     0.0169053  
C360     C      0.663460000000     0.349640000000     0.482130000000     0.0210771  
C361     C      0.728100000000     0.373900000000     0.538880000000     0.0105539  
C362     C      0.694750000000     0.361700000000     0.544180000000    -0.0994078  
C363     C      0.820300000000     0.157120000000     0.307200000000     0.0153396  
C364     C      0.711220000000     0.528590000000     0.351580000000     0.0141878  
C365     C      0.756280000000     0.542610000000     0.391100000000     0.015472   
C366     C      0.727430000000     0.057610000000     0.326990000000    -0.100288   
C367     C      0.804380000000     0.132890000000     0.338360000000    -0.101213   
C368     C      0.775880000000     0.070130000000     0.365910000000    -0.100449   
C369     C      0.772290000000     0.110260000000     0.327230000000     0.0179103  
C370     C      0.758380000000     0.081160000000     0.341730000000     0.0172695  
C371     C      0.772890000000     0.149870000000     0.279660000000     0.0145603  
C372     C      0.754540000000     0.122930000000     0.306950000000    -0.101221   
C373     C      0.776300000000     0.398750000000     0.432970000000     0.015912   
C374     C      0.803660000000     0.337570000000     0.290040000000     0.0158323  
C375     C      0.768580000000     0.299670000000     0.337420000000     0.0145532  
C376     C      0.816250000000     0.362740000000     0.320690000000    -0.100687   
C377     C      0.772670000000     0.371420000000     0.409770000000    -0.0992641  
C378     C      0.778530000000     0.323300000000     0.370290000000    -0.100836   
C379     C      0.794460000000     0.379020000000     0.375510000000     0.0181674  
C380     C      0.794910000000     0.355990000000     0.355090000000     0.0175885  
C381     C      0.812850000000     0.435760000000     0.387340000000     0.0172453  
C382     C      0.811970000000     0.411610000000     0.359890000000    -0.0999097  
C383     C      0.852330000000     0.269620000000     0.153620000000     0.013582   
C384     C      0.943540000000     0.354020000000     0.032650000000     0.0162278  
C385     C      0.893450000000     0.322580000000     0.005470000000     0.0164452  
C386     C      0.933430000000     0.344750000000     0.075040000000    -0.0994227  
C387     C      0.855760000000     0.295190000000     0.126760000000    -0.101414   
C388     C      0.879250000000     0.310250000000     0.045520000000    -0.0998129  
C389     C      0.888520000000     0.316960000000     0.118250000000     0.018276   
C390     C      0.899760000000     0.325000000000     0.080920000000     0.018085   
C391     C      0.903190000000     0.303010000000     0.181630000000     0.0132466  
C392     C      0.907580000000     0.329120000000     0.155090000000    -0.101401   
C393     C      0.022060000000     0.244010000000     0.727570000000     0.0195875  
C394     C      0.914570000000     0.236490000000     0.826250000000     0.0157081  
C395     C      0.957070000000     0.288470000000     0.820790000000     0.0176766  
C396     C      0.931820000000     0.222870000000     0.806630000000    -0.100003   
C397     C      0.007650000000     0.259150000000     0.749830000000    -0.102899   
C398     C      0.978110000000     0.278070000000     0.805740000000    -0.100413   
C399     C      0.975460000000     0.237100000000     0.761670000000     0.0209688  
C400     C      0.961520000000     0.246170000000     0.788120000000     0.017398   
C401     C      0.975160000000     0.197870000000     0.711950000000     0.0164377  
C402     C      0.957420000000     0.206900000000     0.739610000000    -0.100032   
C403     C      0.679800000000     0.289150000000     0.686170000000     0.0157419  
C404     C      0.095650000000     0.274430000000     0.541410000000     0.0156828  
C405     C      0.110310000000     0.320820000000     0.579570000000     0.0154108  
C406     C      0.108870000000     0.262140000000     0.571370000000    -0.0996647  
C407     C      0.665830000000     0.301660000000     0.657740000000    -0.0986197  
C408     C      0.123310000000     0.311200000000     0.613120000000    -0.100186   
C409     C      0.647470000000     0.279570000000     0.624900000000     0.0147832  
C410     C      0.628880000000     0.285260000000     0.602290000000     0.0160925  
C411     C      0.670240000000     0.246320000000     0.643890000000     0.0151248  
C412     C      0.653980000000     0.254400000000     0.612860000000    -0.098925   
C413     C      0.969410000000     0.339940000000     0.573790000000     0.0138909  
C414     C      0.829170000000     0.269750000000     0.597990000000     0.0158951  
C415     C      0.843780000000     0.303010000000     0.539800000000     0.0140886  
C416     C      0.860260000000     0.285950000000     0.615580000000    -0.100456   
C417     C      0.936940000000     0.325760000000     0.560040000000    -0.0994577  
C418     C      0.876900000000     0.318290000000     0.550670000000    -0.10037    
C419     C      0.913440000000     0.311980000000     0.592660000000     0.0159983  
C420     C      0.884410000000     0.304000000000     0.585190000000     0.016433   
C421     C      0.954210000000     0.320780000000     0.641110000000     0.0170563  
C422     C      0.921410000000     0.301780000000     0.630740000000    -0.100051   
C423     C      0.877470000000     0.283730000000     0.434500000000     0.0157504  
C424     C      0.950020000000     0.215560000000     0.468670000000     0.0160942  
C425     C      0.909530000000     0.201720000000     0.515800000000     0.014213   
C426     C      0.947090000000     0.241350000000     0.450690000000    -0.0991822  
C427     C      0.880650000000     0.257780000000     0.451770000000    -0.100309   
C428     C      0.902550000000     0.225760000000     0.500550000000    -0.0985639  
C429     C      0.910070000000     0.259020000000     0.441910000000     0.0174959  
C430     C      0.918460000000     0.241210000000     0.462180000000     0.0158868  
C431     C      0.921390000000     0.301010000000     0.392080000000     0.0161197  
C432     C      0.926720000000     0.275380000000     0.404460000000    -0.100181   
C433     C      0.961400000000     0.727260000000     0.538570000000     0.40215    
C434     C      0.001930000000     0.736540000000     0.660980000000     0.404933   
C435     C      0.057310000000     0.783850000000     0.569830000000     0.403772   
C436     C      0.983280000000     0.804100000000     0.602360000000     0.414228   
C437     C      0.859870000000     0.775190000000     0.225450000000     0.401621   
C438     C      0.871920000000     0.781560000000     0.362310000000     0.401594   
C439     C      0.807130000000     0.792190000000     0.305260000000     0.408228   
C440     C      0.813230000000     0.701050000000     0.298170000000     0.40929    
C441     C      0.812400000000     0.867000000000     0.664800000000     0.401642   
C442     C      0.749140000000     0.841790000000     0.558020000000     0.39927    
C443     C      0.807500000000     0.802520000000     0.587630000000     0.405862   
C444     C      0.720930000000     0.789650000000     0.650330000000     0.40915    
C445     C      0.718850000000     0.919360000000     0.279170000000     0.403738   
C446     C      0.670970000000     0.895160000000     0.396070000000     0.415933   
C447     C      0.762520000000     0.928770000000     0.390530000000     0.403386   
C448     C      0.728110000000     0.991520000000     0.362130000000     0.408931   
C449     C      0.742840000000     0.940110000000     0.999030000000     0.41077    
C450     C      0.756450000000     0.940270000000     0.868630000000     0.410313   
C451     C      0.685880000000     0.952540000000     0.918590000000     0.407972   
C452     C      0.781010000000     0.024980000000     0.929440000000     0.409048   
C453     C      0.932520000000     0.810000000000     0.991100000000     0.402191   
C454     C      0.938190000000     0.766760000000     0.885920000000     0.417027   
C455     C      0.006720000000     0.792090000000     0.973490000000     0.395212   
C456     C      0.920150000000     0.717220000000     0.003710000000     0.41282    
C457     C      0.791850000000     0.077650000000     0.939160000000     0.0142677  
C458     C      0.915340000000     0.667830000000     0.020120000000     0.0162765  
C459     C      0.875570000000     0.678320000000     0.038330000000     0.0158583  
C460     C      0.895660000000     0.642670000000     0.991410000000    -0.0996588  
C461     C      0.808840000000     0.595950000000     0.975320000000    -0.100699   
C462     C      0.852830000000     0.653980000000     0.010930000000    -0.0996703  
C463     C      0.842140000000     0.606840000000     0.973740000000     0.0180439  
C464     C      0.862470000000     0.632510000000     0.993440000000     0.0173811  
C465     C      0.832290000000     0.067510000000     0.920940000000     0.0159341  
C466     C      0.851060000000     0.584850000000     0.956410000000    -0.101197   
C467     C      0.638480000000     0.924240000000     0.882920000000     0.0158098  
C468     C      0.053500000000     0.825990000000     0.008420000000     0.0150012  
C469     C      0.054830000000     0.803470000000     0.944980000000     0.0161672  
C470     C      0.070160000000     0.858300000000     0.992140000000    -0.0997876  
C471     C      0.620530000000     0.891780000000     0.898150000000    -0.0994181  
C472     C      0.070630000000     0.834010000000     0.924050000000    -0.0999817  
C473     C      0.606650000000     0.889010000000     0.938780000000     0.0174206  
C474     C      0.584830000000     0.861180000000     0.952060000000     0.017472   
C475     C      0.639730000000     0.946830000000     0.947150000000     0.0160981  
C476     C      0.621250000000     0.916020000000     0.967100000000    -0.0998801  
C477     C      0.693150000000     0.901980000000     0.215200000000     0.0132955  
C478     C      0.768030000000     0.944970000000     0.061580000000     0.0155399  
C479     C      0.715000000000     0.902470000000     0.050490000000     0.0148741  
C480     C      0.764090000000     0.928830000000     0.101010000000    -0.103661   
C481     C      0.703290000000     0.919800000000     0.176770000000    -0.101059   
C482     C      0.707840000000     0.909140000000     0.091580000000    -0.102374   
C483     C      0.730290000000     0.919780000000     0.159170000000     0.0172704  
C484     C      0.734030000000     0.919640000000     0.119390000000     0.0182657  
C485     C      0.743250000000     0.907530000000     0.225390000000     0.0137009  
C486     C      0.755210000000     0.925920000000     0.187690000000    -0.101267   
C487     C      0.766120000000     0.939550000000     0.797730000000     0.0151385  
C488     C      0.837120000000     0.880140000000     0.729480000000     0.0170131  
C489     C      0.839360000000     0.920170000000     0.687080000000     0.015523   
C490     C      0.818820000000     0.884640000000     0.761130000000    -0.0997285  
C491     C      0.795870000000     0.946560000000     0.779850000000    -0.101936   
C492     C      0.820690000000     0.927430000000     0.714980000000    -0.0991985  
C493     C      0.801440000000     0.920040000000     0.784370000000     0.0186305  
C494     C      0.814800000000     0.912200000000     0.755380000000     0.0180526  
C495     C      0.766060000000     0.900740000000     0.842400000000     0.0142252  
C496     C      0.795550000000     0.906090000000     0.825390000000    -0.101611   
C497     C      0.717280000000     0.827960000000     0.498980000000     0.0116519  
C498     C      0.643140000000     0.883600000000     0.457870000000     0.0180903  
C499     C      0.636790000000     0.842230000000     0.415040000000     0.0170314  
C500     C      0.661780000000     0.878540000000     0.488280000000    -0.0990245  
C501     C      0.683850000000     0.815670000000     0.503580000000    -0.0999544  
C502     C      0.652850000000     0.831880000000     0.443460000000    -0.0983725  
C503     C      0.678240000000     0.842000000000     0.509040000000     0.0169129  
C504     C      0.663460000000     0.849640000000     0.482130000000     0.0210463  
C505     C      0.728100000000     0.873900000000     0.538880000000     0.0105587  
C506     C      0.694750000000     0.861690000000     0.544180000000    -0.0993841  
C507     C      0.820290000000     0.657120000000     0.307200000000     0.0155343  
C508     C      0.711220000000     0.028590000000     0.351580000000     0.0141981  
C509     C      0.756280000000     0.042610000000     0.391100000000     0.0155071  
C510     C      0.727430000000     0.557620000000     0.326990000000    -0.100335   
C511     C      0.804380000000     0.632890000000     0.338360000000    -0.101304   
C512     C      0.775870000000     0.570130000000     0.365910000000    -0.10036    
C513     C      0.772290000000     0.610260000000     0.327230000000     0.0179023  
C514     C      0.758380000000     0.581160000000     0.341730000000     0.0172342  
C515     C      0.772890000000     0.649870000000     0.279660000000     0.0145662  
C516     C      0.754540000000     0.622930000000     0.306950000000    -0.101223   
C517     C      0.776300000000     0.898750000000     0.432970000000     0.0159195  
C518     C      0.803660000000     0.837580000000     0.290040000000     0.0157432  
C519     C      0.768580000000     0.799670000000     0.337420000000     0.0145234  
C520     C      0.816250000000     0.862740000000     0.320690000000    -0.100618   
C521     C      0.772670000000     0.871420000000     0.409770000000    -0.0992738  
C522     C      0.778520000000     0.823300000000     0.370290000000    -0.100755   
C523     C      0.794460000000     0.879020000000     0.375510000000     0.0181869  
C524     C      0.794900000000     0.855990000000     0.355090000000     0.017523   
C525     C      0.812850000000     0.935760000000     0.387340000000     0.0172729  
C526     C      0.811970000000     0.911610000000     0.359890000000    -0.0999422  
C527     C      0.852330000000     0.769620000000     0.153620000000     0.0136221  
C528     C      0.943540000000     0.854010000000     0.032650000000     0.0162651  
C529     C      0.893450000000     0.822580000000     0.005470000000     0.016527   
C530     C      0.933430000000     0.844750000000     0.075040000000    -0.099438   
C531     C      0.855760000000     0.795200000000     0.126760000000    -0.101477   
C532     C      0.879250000000     0.810240000000     0.045520000000    -0.0998608  
C533     C      0.888520000000     0.816960000000     0.118250000000     0.0182873  
C534     C      0.899760000000     0.825000000000     0.080920000000     0.0180696  
C535     C      0.903190000000     0.803010000000     0.181630000000     0.0132472  
C536     C      0.907580000000     0.829120000000     0.155090000000    -0.101397   
C537     C      0.022060000000     0.744010000000     0.727570000000     0.0195823  
C538     C      0.914560000000     0.736490000000     0.826250000000     0.015626   
C539     C      0.957070000000     0.788470000000     0.820790000000     0.0177011  
C540     C      0.931820000000     0.722870000000     0.806630000000    -0.0999506  
C541     C      0.007650000000     0.759150000000     0.749830000000    -0.10288    
C542     C      0.978110000000     0.778070000000     0.805740000000    -0.100411   
C543     C      0.975450000000     0.737100000000     0.761670000000     0.020938   
C544     C      0.961520000000     0.746170000000     0.788120000000     0.0173925  
C545     C      0.975160000000     0.697870000000     0.711950000000     0.0164738  
C546     C      0.957420000000     0.706900000000     0.739610000000    -0.100027   
C547     C      0.679800000000     0.789150000000     0.686170000000     0.0157428  
C548     C      0.095650000000     0.774440000000     0.541410000000     0.0157545  
C549     C      0.110320000000     0.820820000000     0.579570000000     0.0154351  
C550     C      0.108870000000     0.762140000000     0.571370000000    -0.0996828  
C551     C      0.665840000000     0.801660000000     0.657740000000    -0.0985165  
C552     C      0.123310000000     0.811200000000     0.613120000000    -0.100195   
C553     C      0.647470000000     0.779570000000     0.624900000000     0.0147587  
C554     C      0.628880000000     0.785260000000     0.602290000000     0.016104   
C555     C      0.670250000000     0.746320000000     0.643890000000     0.0150869  
C556     C      0.653980000000     0.754410000000     0.612860000000    -0.0988894  
C557     C      0.969410000000     0.839940000000     0.573790000000     0.013901   
C558     C      0.829170000000     0.769740000000     0.597990000000     0.0157799  
C559     C      0.843790000000     0.803010000000     0.539800000000     0.0140773  
C560     C      0.860260000000     0.785950000000     0.615580000000    -0.100392   
C561     C      0.936940000000     0.825760000000     0.560040000000    -0.0994635  
C562     C      0.876900000000     0.818290000000     0.550670000000    -0.100344   
C563     C      0.913440000000     0.811980000000     0.592660000000     0.0160015  
C564     C      0.884410000000     0.803990000000     0.585190000000     0.0163917  
C565     C      0.954210000000     0.820780000000     0.641110000000     0.0170595  
C566     C      0.921410000000     0.801780000000     0.630740000000    -0.100051   
C567     C      0.877470000000     0.783730000000     0.434500000000     0.0157577  
C568     C      0.950020000000     0.715560000000     0.468670000000     0.0161014  
C569     C      0.909530000000     0.701730000000     0.515800000000     0.014241   
C570     C      0.947090000000     0.741350000000     0.450690000000    -0.0991835  
C571     C      0.880650000000     0.757780000000     0.451770000000    -0.100304   
C572     C      0.902550000000     0.725760000000     0.500550000000    -0.0985808  
C573     C      0.910070000000     0.759020000000     0.441910000000     0.0174904  
C574     C      0.918460000000     0.741210000000     0.462180000000     0.0158848  
C575     C      0.921390000000     0.801010000000     0.392080000000     0.0161504  
C576     C      0.926720000000     0.775380000000     0.404460000000    -0.100177   
H1       H      0.304340000000     0.114970000000     0.977150000000     0.0444738  
H2       H      0.413230000000     0.157600000000     0.049590000000     0.0256548  
H3       H      0.338630000000     0.583520000000     0.895870000000     0.0267842  
H4       H      0.374360000000     0.096450000000     0.945960000000     0.0442108  
H5       H      0.399220000000     0.123390000000     0.997880000000     0.0439789  
H6       H      0.332140000000     0.141070000000     0.028310000000     0.0440092  
H7       H      0.267600000000     0.567060000000     0.944620000000     0.0402323  
H8       H      0.438970000000     0.178260000000     0.011000000000     0.0379407  
H9       H      0.348670000000     0.068460000000     0.979540000000     0.054186   
H10      H      0.348320000000     0.165420000000     0.986370000000     0.0533829  
H11      H      0.337490000000     0.549620000000     0.912590000000     0.0394091  
H12      H      0.374210000000     0.167850000000     0.067420000000     0.0257237  
H13      H      0.299400000000     0.581700000000     0.001880000000     0.0522978  
H14      H      0.403590000000     0.150760000000     0.961150000000     0.0533133  
H15      H      0.369940000000     0.196460000000     0.042600000000     0.0378895  
H16      H      0.297480000000     0.593500000000     0.914050000000     0.027904   
H17      H      0.103120000000     0.378980000000     0.875830000000     0.0436658  
H18      H      0.570090000000     0.320370000000     0.020230000000     0.0265039  
H19      H      0.124330000000     0.454110000000     0.935400000000     0.0264628  
H20      H      0.104220000000     0.417620000000     0.984910000000     0.0438046  
H21      H      0.586860000000     0.372190000000     0.014690000000     0.0439914  
H22      H      0.087500000000     0.333350000000     0.904790000000     0.0436992  
H23      H      0.152130000000     0.425020000000     0.857370000000     0.0391993  
H24      H      0.538990000000     0.324810000000     0.033100000000     0.0405939  
H25      H      0.135960000000     0.412390000000     0.987280000000     0.0536995  
H26      H      0.554320000000     0.336140000000     0.905240000000     0.0540722  
H27      H      0.154340000000     0.463920000000     0.969120000000     0.0394148  
H28      H      0.571930000000     0.298790000000     0.957310000000     0.0264933  
H29      H      0.135420000000     0.382050000000     0.899770000000     0.0533079  
H30      H      0.554240000000     0.366700000000     0.989170000000     0.05436    
H31      H      0.541420000000     0.285280000000     0.923490000000     0.0384572  
H32      H      0.122730000000     0.431540000000     0.872640000000     0.0264232  
H33      H      0.183830000000     0.410430000000     0.156940000000     0.0437392  
H34      H      0.271940000000     0.468160000000     0.067100000000     0.0337008  
H35      H      0.234830000000     0.383290000000     0.218370000000     0.0269337  
H36      H      0.271020000000     0.419530000000     0.175260000000     0.0435168  
H37      H      0.282800000000     0.444940000000     0.119780000000     0.0443485  
H38      H      0.201550000000     0.426940000000     0.089480000000     0.0510752  
H39      H      0.175840000000     0.405660000000     0.228930000000     0.0399906  
H40      H      0.288250000000     0.447700000000     0.046680000000     0.0333901  
H41      H      0.267580000000     0.450440000000     0.194880000000     0.0513377  
H42      H      0.188550000000     0.387930000000     0.102670000000     0.0444405  
H43      H      0.261850000000     0.414740000000     0.246550000000     0.0392269  
H44      H      0.195500000000     0.395930000000     0.031170000000     0.0385326  
H45      H      0.209560000000     0.443670000000     0.182770000000     0.0521332  
H46      H      0.266000000000     0.408310000000     0.096620000000     0.0499318  
H47      H      0.218620000000     0.382800000000     0.052070000000     0.0292824  
H48      H      0.182860000000     0.377480000000     0.208210000000     0.0279552  
H49      H      0.295250000000     0.452870000000     0.748960000000     0.0448474  
H50      H      0.361080000000     0.395180000000     0.736270000000     0.0249727  
H51      H      0.247660000000     0.381700000000     0.826120000000     0.0288116  
H52      H      0.294450000000     0.383890000000     0.826390000000     0.0446114  
H53      H      0.330190000000     0.386500000000     0.789430000000     0.0441243  
H54      H      0.332640000000     0.452430000000     0.718380000000     0.0442728  
H55      H      0.264240000000     0.460290000000     0.796580000000     0.0411806  
H56      H      0.332590000000     0.356420000000     0.730180000000     0.0381786  
H57      H      0.313960000000     0.421740000000     0.844970000000     0.0523393  
H58      H      0.298920000000     0.420170000000     0.700690000000     0.0544238  
H59      H      0.264470000000     0.393710000000     0.873560000000     0.0396304  
H60      H      0.363160000000     0.434500000000     0.695230000000     0.0260188  
H61      H      0.314090000000     0.466630000000     0.794790000000     0.0530064  
H62      H      0.296450000000     0.364040000000     0.761930000000     0.056046   
H63      H      0.336670000000     0.426020000000     0.656530000000     0.0406158  
H64      H      0.247980000000     0.422020000000     0.779360000000     0.0293629  
H65      H      0.172090000000     0.300660000000     0.478490000000     0.0424892  
H66      H      0.119270000000     0.369320000000     0.465680000000     0.0272233  
H67      H      0.235820000000     0.389250000000     0.513110000000     0.031516   
H68      H      0.191060000000     0.380940000000     0.549500000000     0.0432411  
H69      H      0.152240000000     0.378170000000     0.517540000000     0.0439127  
H70      H      0.137490000000     0.307550000000     0.449800000000     0.0430147  
H71      H      0.221510000000     0.308730000000     0.496760000000     0.0394163  
H72      H      0.148660000000     0.407650000000     0.458390000000     0.0380359  
H73      H      0.187170000000     0.347530000000     0.571090000000     0.0495437  
H74      H      0.172620000000     0.334030000000     0.427920000000     0.0546545  
H75      H      0.240130000000     0.387530000000     0.565030000000     0.0421165  
H76      H      0.112720000000     0.330010000000     0.422400000000     0.0264326  
H77      H      0.175940000000     0.301160000000     0.530160000000     0.0503867  
H78      H      0.184720000000     0.398260000000     0.487060000000     0.057893   
H79      H      0.139040000000     0.336060000000     0.384470000000     0.0380258  
H80      H      0.224550000000     0.340740000000     0.471020000000     0.0270917  
H81      H      0.317970000000     0.121850000000     0.341890000000     0.0440032  
H82      H      0.200250000000     0.533050000000     0.376650000000     0.0275928  
H83      H      0.276160000000     0.140970000000     0.251450000000     0.0272715  
H84      H      0.236530000000     0.105720000000     0.288330000000     0.0440781  
H85      H      0.212390000000     0.067150000000     0.326410000000     0.0440382  
H86      H      0.291210000000     0.087850000000     0.386680000000     0.0442154  
H87      H      0.342580000000     0.174090000000     0.318440000000     0.0387444  
H88      H      0.193410000000     0.510410000000     0.333570000000     0.0393145  
H89      H      0.244240000000     0.130060000000     0.330030000000     0.0522161  
H90      H      0.289130000000     0.064460000000     0.345660000000     0.0523701  
H91      H      0.260050000000     0.161400000000     0.273120000000     0.0402898  
H92      H      0.246860000000     0.549800000000     0.415350000000     0.0275539  
H93      H      0.304470000000     0.143840000000     0.366570000000     0.0520797  
H94      H      0.229770000000     0.051300000000     0.296550000000     0.0505367  
H95      H      0.270150000000     0.534060000000     0.404480000000     0.0403179  
H96      H      0.323640000000     0.146330000000     0.280820000000     0.0270377  
H97      H      0.275100000000     0.356290000000     0.431000000000     0.0467639  
H98      H      0.284750000000     0.337780000000     0.275060000000     0.026393   
H99      H      0.330110000000     0.441130000000     0.410130000000     0.0267532  
H100     H      0.335390000000     0.417900000000     0.354020000000     0.0445877  
H101     H      0.321360000000     0.383700000000     0.304720000000     0.0440662  
H102     H      0.258140000000     0.317890000000     0.386910000000     0.0447067  
H103     H      0.255630000000     0.392500000000     0.449480000000     0.0385359  
H104     H      0.320870000000     0.342160000000     0.267530000000     0.038334   
H105     H      0.301610000000     0.412680000000     0.331860000000     0.0567769  
H106     H      0.293660000000     0.320290000000     0.390370000000     0.0547473  
H107     H      0.319250000000     0.456850000000     0.370640000000     0.0404737  
H108     H      0.249430000000     0.299000000000     0.321960000000     0.0276507  
H109     H      0.249710000000     0.359280000000     0.397750000000     0.0519642  
H110     H      0.337440000000     0.365490000000     0.332240000000     0.0534452  
H111     H      0.260880000000     0.276970000000     0.350400000000     0.0408353  
H112     H      0.294530000000     0.405440000000     0.454660000000     0.0288504  
H113     H      0.341890000000     0.284550000000     0.100530000000     0.044311   
H114     H      0.441810000000     0.374360000000     0.025620000000     0.0252105  
H115     H      0.412720000000     0.290440000000     0.166640000000     0.0291272  
H116     H      0.431680000000     0.343310000000     0.149630000000     0.044545   
H117     H      0.441990000000     0.366000000000     0.092220000000     0.0439069  
H118     H      0.359610000000     0.313310000000     0.047700000000     0.0440879  
H119     H      0.328500000000     0.255040000000     0.161230000000     0.0406723  
H120     H      0.467260000000     0.360420000000     0.029540000000     0.0390855  
H121     H      0.400630000000     0.343470000000     0.171250000000     0.0537782  
H122     H      0.371500000000     0.285610000000     0.046000000000     0.0547593  
H123     H      0.415760000000     0.312430000000     0.209310000000     0.0429401  
H124     H      0.392870000000     0.343720000000     0.999620000000     0.0254725  
H125     H      0.346400000000     0.307920000000     0.141720000000     0.0532892  
H126     H      0.444120000000     0.332010000000     0.086090000000     0.0539619  
H127     H      0.380310000000     0.306010000000     0.982140000000     0.0389257  
H128     H      0.359390000000     0.255480000000     0.137140000000     0.0287939  
H129     H      0.521510000000     0.270100000000     0.776170000000     0.0444975  
H130     H      0.402550000000     0.241380000000     0.803000000000     0.0263341  
H131     H      0.482480000000     0.184140000000     0.728870000000     0.025954   
H132     H      0.445670000000     0.188100000000     0.760880000000     0.0438684  
H133     H      0.416610000000     0.206420000000     0.784580000000     0.0439804  
H134     H      0.492670000000     0.295130000000     0.783810000000     0.045196   
H135     H      0.543670000000     0.261480000000     0.715070000000     0.0361165  
H136     H      0.397660000000     0.219670000000     0.846590000000     0.0376067  
H137     H      0.440400000000     0.208490000000     0.721700000000     0.0521001  
H138     H      0.492200000000     0.278240000000     0.830370000000     0.0560044  
H139     H      0.460600000000     0.183420000000     0.687790000000     0.039402   
H140     H      0.445770000000     0.291950000000     0.795290000000     0.0263414  
H141     H      0.508030000000     0.277020000000     0.730790000000     0.0586729  
H142     H      0.436540000000     0.210090000000     0.829110000000     0.0526873  
H143     H      0.469970000000     0.310490000000     0.836250000000     0.038541   
H144     H      0.526510000000     0.229950000000     0.748370000000     0.0247121  
H145     H      0.151860000000     0.307910000000     0.675610000000     0.0439891  
H146     H      0.613080000000     0.288120000000     0.519450000000     0.0250676  
H147     H      0.153730000000     0.230880000000     0.665760000000     0.02649    
H148     H      0.133050000000     0.233160000000     0.606020000000     0.0439853  
H149     H      0.621260000000     0.253570000000     0.554180000000     0.0424727  
H150     H      0.644210000000     0.331750000000     0.622020000000     0.0424663  
H151     H      0.196860000000     0.307800000000     0.704450000000     0.0383323  
H152     H      0.577000000000     0.255350000000     0.525550000000     0.0393183  
H153     H      0.167870000000     0.261900000000     0.585920000000     0.0516534  
H154     H      0.607660000000     0.303820000000     0.638300000000     0.0549025  
H155     H      0.180440000000     0.234010000000     0.629920000000     0.0394208  
H156     H      0.628100000000     0.333540000000     0.557760000000     0.0254285  
H157     H      0.183910000000     0.322550000000     0.644050000000     0.0513975  
H158     H      0.590360000000     0.242690000000     0.586850000000     0.0536015  
H159     H      0.602710000000     0.336210000000     0.590960000000     0.0392131  
H160     H      0.162210000000     0.272670000000     0.706130000000     0.0261188  
H161     H      0.435350000000     0.343920000000     0.544320000000     0.0435042  
H162     H      0.327110000000     0.251240000000     0.578610000000     0.0266303  
H163     H      0.459010000000     0.343840000000     0.649650000000     0.0260815  
H164     H      0.408960000000     0.303610000000     0.656050000000     0.0443754  
H165     H      0.363580000000     0.268150000000     0.629340000000     0.0445237  
H166     H      0.388630000000     0.317950000000     0.523690000000     0.0422396  
H167     H      0.483710000000     0.341440000000     0.548670000000     0.0381836  
H168     H      0.312500000000     0.259330000000     0.621850000000     0.0408768  
H169     H      0.415560000000     0.277750000000     0.627570000000     0.0536425  
H170     H      0.384720000000     0.342290000000     0.558270000000     0.0511743  
H171     H      0.459300000000     0.310660000000     0.666720000000     0.0374816  
H172     H      0.338550000000     0.283600000000     0.520070000000     0.0258378  
H173     H      0.432440000000     0.307530000000     0.538610000000     0.0488121  
H174     H      0.361230000000     0.301650000000     0.638880000000     0.053341   
H175     H      0.339530000000     0.319130000000     0.523050000000     0.0390521  
H176     H      0.476950000000     0.363410000000     0.583900000000     0.0270286  
H177     H      0.377850000000     0.258450000000     0.483980000000     0.0427527  
H178     H      0.435140000000     0.194310000000     0.452500000000     0.0264449  
H179     H      0.433770000000     0.320420000000     0.412420000000     0.0258162  
H180     H      0.451090000000     0.285700000000     0.408170000000     0.0451294  
H181     H      0.448440000000     0.239440000000     0.418400000000     0.0448528  
H182     H      0.378080000000     0.214330000000     0.496890000000     0.0434797  
H183     H      0.353790000000     0.277780000000     0.435370000000     0.0378139  
H184     H      0.473190000000     0.220190000000     0.465280000000     0.0400104  
H185     H      0.419480000000     0.258550000000     0.380270000000     0.0558381  
H186     H      0.409180000000     0.243540000000     0.523410000000     0.0499278  
H187     H      0.430250000000     0.308710000000     0.362030000000     0.0412839  
H188     H      0.395980000000     0.180450000000     0.498990000000     0.0267556  
H189     H      0.362190000000     0.236050000000     0.440450000000     0.0531861  
H190     H      0.466350000000     0.263180000000     0.460340000000     0.0545172  
H191     H      0.403070000000     0.196880000000     0.547180000000     0.0392796  
H192     H      0.390270000000     0.304100000000     0.453190000000     0.0227886  
H193     H      0.304340000000     0.614970000000     0.977150000000     0.0444144  
H194     H      0.413230000000     0.657600000000     0.049590000000     0.0255985  
H195     H      0.338630000000     0.083520000000     0.895870000000     0.0268905  
H196     H      0.374360000000     0.596450000000     0.945960000000     0.0441447  
H197     H      0.399220000000     0.623390000000     0.997880000000     0.0439057  
H198     H      0.332140000000     0.641070000000     0.028310000000     0.0439553  
H199     H      0.267600000000     0.067060000000     0.944620000000     0.0403533  
H200     H      0.438970000000     0.678260000000     0.011000000000     0.0379059  
H201     H      0.348670000000     0.568460000000     0.979540000000     0.0540489  
H202     H      0.348320000000     0.665420000000     0.986370000000     0.0533623  
H203     H      0.337490000000     0.049620000000     0.912590000000     0.0395876  
H204     H      0.374210000000     0.667850000000     0.067420000000     0.0256793  
H205     H      0.299400000000     0.081700000000     0.001880000000     0.0524306  
H206     H      0.403590000000     0.650770000000     0.961150000000     0.0532819  
H207     H      0.369940000000     0.696460000000     0.042600000000     0.0378723  
H208     H      0.297480000000     0.093500000000     0.914050000000     0.0279626  
H209     H      0.103120000000     0.878990000000     0.875830000000     0.0436864  
H210     H      0.570090000000     0.820370000000     0.020230000000     0.0264983  
H211     H      0.124330000000     0.954110000000     0.935400000000     0.0263307  
H212     H      0.104220000000     0.917620000000     0.984910000000     0.0437691  
H213     H      0.586870000000     0.872190000000     0.014690000000     0.0439082  
H214     H      0.087500000000     0.833350000000     0.904790000000     0.0436907  
H215     H      0.152130000000     0.925020000000     0.857370000000     0.039141   
H216     H      0.538990000000     0.824810000000     0.033100000000     0.0405881  
H217     H      0.135960000000     0.912390000000     0.987280000000     0.0536691  
H218     H      0.554320000000     0.836140000000     0.905240000000     0.0540542  
H219     H      0.154340000000     0.963930000000     0.969120000000     0.0392593  
H220     H      0.571930000000     0.798790000000     0.957310000000     0.0264839  
H221     H      0.135420000000     0.882050000000     0.899770000000     0.0533611  
H222     H      0.554240000000     0.866700000000     0.989170000000     0.0542706  
H223     H      0.541420000000     0.785280000000     0.923490000000     0.0384554  
H224     H      0.122730000000     0.931540000000     0.872640000000     0.0263342  
H225     H      0.183830000000     0.910430000000     0.156940000000     0.0436901  
H226     H      0.271940000000     0.968170000000     0.067100000000     0.0335412  
H227     H      0.234830000000     0.883290000000     0.218370000000     0.0269298  
H228     H      0.271020000000     0.919530000000     0.175260000000     0.0434671  
H229     H      0.282800000000     0.944940000000     0.119780000000     0.0442643  
H230     H      0.201550000000     0.926940000000     0.089480000000     0.0510203  
H231     H      0.175840000000     0.905660000000     0.228930000000     0.0399391  
H232     H      0.288250000000     0.947700000000     0.046680000000     0.0332704  
H233     H      0.267580000000     0.950440000000     0.194880000000     0.0512176  
H234     H      0.188560000000     0.887930000000     0.102670000000     0.0444492  
H235     H      0.261850000000     0.914740000000     0.246550000000     0.0391909  
H236     H      0.195500000000     0.895930000000     0.031170000000     0.0385208  
H237     H      0.209560000000     0.943670000000     0.182770000000     0.0520131  
H238     H      0.266000000000     0.908310000000     0.096620000000     0.049907   
H239     H      0.218620000000     0.882800000000     0.052070000000     0.0292693  
H240     H      0.182860000000     0.877480000000     0.208210000000     0.0279456  
H241     H      0.295250000000     0.952870000000     0.748960000000     0.0447557  
H242     H      0.361080000000     0.895180000000     0.736270000000     0.0248944  
H243     H      0.247660000000     0.881700000000     0.826120000000     0.028811   
H244     H      0.294450000000     0.883890000000     0.826390000000     0.0445886  
H245     H      0.330190000000     0.886500000000     0.789430000000     0.0440915  
H246     H      0.332640000000     0.952430000000     0.718380000000     0.0441646  
H247     H      0.264240000000     0.960290000000     0.796580000000     0.0410623  
H248     H      0.332580000000     0.856420000000     0.730180000000     0.0381498  
H249     H      0.313960000000     0.921740000000     0.844970000000     0.0522559  
H250     H      0.298920000000     0.920170000000     0.700690000000     0.0543875  
H251     H      0.264470000000     0.893710000000     0.873560000000     0.039607   
H252     H      0.363160000000     0.934500000000     0.695230000000     0.0259215  
H253     H      0.314090000000     0.966630000000     0.794790000000     0.0528535  
H254     H      0.296450000000     0.864040000000     0.761930000000     0.0560435  
H255     H      0.336670000000     0.926020000000     0.656530000000     0.0405398  
H256     H      0.247980000000     0.922030000000     0.779360000000     0.0293342  
H257     H      0.172090000000     0.800660000000     0.478490000000     0.0424391  
H258     H      0.119270000000     0.869320000000     0.465680000000     0.0271897  
H259     H      0.235820000000     0.889250000000     0.513110000000     0.0314778  
H260     H      0.191060000000     0.880940000000     0.549500000000     0.0431607  
H261     H      0.152240000000     0.878180000000     0.517540000000     0.0438637  
H262     H      0.137490000000     0.807550000000     0.449800000000     0.043004   
H263     H      0.221510000000     0.808730000000     0.496760000000     0.0394124  
H264     H      0.148660000000     0.907650000000     0.458390000000     0.0379497  
H265     H      0.187170000000     0.847540000000     0.571090000000     0.0495567  
H266     H      0.172620000000     0.834030000000     0.427920000000     0.0546502  
H267     H      0.240130000000     0.887530000000     0.565030000000     0.0420674  
H268     H      0.112720000000     0.830010000000     0.422400000000     0.026412   
H269     H      0.175940000000     0.801160000000     0.530160000000     0.0503465  
H270     H      0.184720000000     0.898260000000     0.487060000000     0.0578384  
H271     H      0.139030000000     0.836060000000     0.384470000000     0.038005   
H272     H      0.224550000000     0.840740000000     0.471020000000     0.0270985  
H273     H      0.317970000000     0.621850000000     0.341890000000     0.0439477  
H274     H      0.200250000000     0.033050000000     0.376650000000     0.0277634  
H275     H      0.276160000000     0.640970000000     0.251450000000     0.0272115  
H276     H      0.236530000000     0.605720000000     0.288330000000     0.0440044  
H277     H      0.212390000000     0.567150000000     0.326410000000     0.0439908  
H278     H      0.291210000000     0.587850000000     0.386680000000     0.0441584  
H279     H      0.342580000000     0.674090000000     0.318440000000     0.0387176  
H280     H      0.193410000000     0.010410000000     0.333570000000     0.0396356  
H281     H      0.244240000000     0.630060000000     0.330030000000     0.0521714  
H282     H      0.289130000000     0.564460000000     0.345660000000     0.0522236  
H283     H      0.260050000000     0.661400000000     0.273120000000     0.0402501  
H284     H      0.246860000000     0.049800000000     0.415350000000     0.0276951  
H285     H      0.304480000000     0.643840000000     0.366570000000     0.0520599  
H286     H      0.229770000000     0.551300000000     0.296550000000     0.050381   
H287     H      0.270150000000     0.034060000000     0.404480000000     0.0406081  
H288     H      0.323640000000     0.646330000000     0.280820000000     0.0269808  
H289     H      0.275100000000     0.856290000000     0.431000000000     0.0467743  
H290     H      0.284750000000     0.837770000000     0.275060000000     0.0264134  
H291     H      0.330110000000     0.941130000000     0.410130000000     0.0266462  
H292     H      0.335390000000     0.917900000000     0.354020000000     0.0445308  
H293     H      0.321370000000     0.883700000000     0.304720000000     0.0440233  
H294     H      0.258140000000     0.817890000000     0.386910000000     0.0446812  
H295     H      0.255630000000     0.892500000000     0.449480000000     0.038501   
H296     H      0.320870000000     0.842150000000     0.267530000000     0.0383534  
H297     H      0.301610000000     0.912670000000     0.331860000000     0.056757   
H298     H      0.293670000000     0.820290000000     0.390370000000     0.0546942  
H299     H      0.319250000000     0.956850000000     0.370640000000     0.0403343  
H300     H      0.249430000000     0.799000000000     0.321960000000     0.0276445  
H301     H      0.249720000000     0.859280000000     0.397750000000     0.0520045  
H302     H      0.337440000000     0.865490000000     0.332240000000     0.0533961  
H303     H      0.260880000000     0.776970000000     0.350400000000     0.0408267  
H304     H      0.294530000000     0.905440000000     0.454660000000     0.0287913  
H305     H      0.341890000000     0.784550000000     0.100530000000     0.0443073  
H306     H      0.441810000000     0.874360000000     0.025620000000     0.0251125  
H307     H      0.412720000000     0.790440000000     0.166640000000     0.0291079  
H308     H      0.431680000000     0.843310000000     0.149630000000     0.0445102  
H309     H      0.441990000000     0.866000000000     0.092220000000     0.0438654  
H310     H      0.359610000000     0.813310000000     0.047700000000     0.0440493  
H311     H      0.328490000000     0.755040000000     0.161230000000     0.0406405  
H312     H      0.467260000000     0.860420000000     0.029540000000     0.0390091  
H313     H      0.400630000000     0.843470000000     0.171250000000     0.0537428  
H314     H      0.371500000000     0.785610000000     0.046000000000     0.0547826  
H315     H      0.415760000000     0.812430000000     0.209310000000     0.0429099  
H316     H      0.392870000000     0.843720000000     0.999620000000     0.0254437  
H317     H      0.346400000000     0.807920000000     0.141720000000     0.0533175  
H318     H      0.444120000000     0.832010000000     0.086090000000     0.0539588  
H319     H      0.380310000000     0.806010000000     0.982140000000     0.0389226  
H320     H      0.359390000000     0.755480000000     0.137140000000     0.0287637  
H321     H      0.521510000000     0.770100000000     0.776170000000     0.0444862  
H322     H      0.402550000000     0.741380000000     0.803000000000     0.0263422  
H323     H      0.482480000000     0.684130000000     0.728870000000     0.0258719  
H324     H      0.445670000000     0.688100000000     0.760880000000     0.043823   
H325     H      0.416610000000     0.706420000000     0.784580000000     0.0439368  
H326     H      0.492670000000     0.795130000000     0.783810000000     0.0451823  
H327     H      0.543670000000     0.761480000000     0.715070000000     0.036095   
H328     H      0.397660000000     0.719670000000     0.846590000000     0.0376129  
H329     H      0.440400000000     0.708490000000     0.721700000000     0.0520829  
H330     H      0.492200000000     0.778240000000     0.830370000000     0.055998   
H331     H      0.460600000000     0.683420000000     0.687790000000     0.0393331  
H332     H      0.445770000000     0.791950000000     0.795290000000     0.0263232  
H333     H      0.508030000000     0.777020000000     0.730790000000     0.0586782  
H334     H      0.436540000000     0.710090000000     0.829110000000     0.052645   
H335     H      0.469970000000     0.810490000000     0.836250000000     0.0385138  
H336     H      0.526510000000     0.729950000000     0.748370000000     0.0246824  
H337     H      0.151860000000     0.807910000000     0.675610000000     0.0439641  
H338     H      0.613080000000     0.788120000000     0.519450000000     0.0250381  
H339     H      0.153730000000     0.730880000000     0.665760000000     0.026452   
H340     H      0.133060000000     0.733170000000     0.606020000000     0.0439666  
H341     H      0.621260000000     0.753570000000     0.554180000000     0.0424594  
H342     H      0.644210000000     0.831750000000     0.622020000000     0.0424508  
H343     H      0.196860000000     0.807800000000     0.704450000000     0.038322   
H344     H      0.577000000000     0.755350000000     0.525550000000     0.0392719  
H345     H      0.167870000000     0.761900000000     0.585920000000     0.0516484  
H346     H      0.607660000000     0.803820000000     0.638300000000     0.0548922  
H347     H      0.180440000000     0.734010000000     0.629920000000     0.039379   
H348     H      0.628100000000     0.833540000000     0.557760000000     0.0254073  
H349     H      0.183910000000     0.822560000000     0.644050000000     0.0513632  
H350     H      0.590360000000     0.742690000000     0.586850000000     0.053574   
H351     H      0.602710000000     0.836220000000     0.590960000000     0.0391745  
H352     H      0.162210000000     0.772670000000     0.706130000000     0.0260988  
H353     H      0.435350000000     0.843920000000     0.544320000000     0.0434729  
H354     H      0.327120000000     0.751240000000     0.578610000000     0.0266356  
H355     H      0.459010000000     0.843840000000     0.649650000000     0.0260403  
H356     H      0.408960000000     0.803610000000     0.656050000000     0.0443616  
H357     H      0.363580000000     0.768150000000     0.629340000000     0.0444931  
H358     H      0.388630000000     0.817950000000     0.523690000000     0.0422209  
H359     H      0.483710000000     0.841440000000     0.548670000000     0.0381478  
H360     H      0.312500000000     0.759330000000     0.621850000000     0.0408907  
H361     H      0.415560000000     0.777750000000     0.627570000000     0.0536368  
H362     H      0.384720000000     0.842290000000     0.558270000000     0.0511343  
H363     H      0.459310000000     0.810670000000     0.666720000000     0.0374676  
H364     H      0.338550000000     0.783600000000     0.520070000000     0.0258326  
H365     H      0.432440000000     0.807530000000     0.538610000000     0.0488092  
H366     H      0.361230000000     0.801650000000     0.638880000000     0.0533125  
H367     H      0.339530000000     0.819130000000     0.523050000000     0.0390399  
H368     H      0.476950000000     0.863410000000     0.583900000000     0.0269683  
H369     H      0.377850000000     0.758450000000     0.483980000000     0.0427459  
H370     H      0.435140000000     0.694310000000     0.452500000000     0.0263756  
H371     H      0.433770000000     0.820420000000     0.412420000000     0.0257788  
H372     H      0.451090000000     0.785690000000     0.408170000000     0.0451046  
H373     H      0.448440000000     0.739440000000     0.418400000000     0.0448373  
H374     H      0.378080000000     0.714330000000     0.496890000000     0.0434691  
H375     H      0.353790000000     0.777780000000     0.435370000000     0.037802   
H376     H      0.473190000000     0.720190000000     0.465280000000     0.0399586  
H377     H      0.419480000000     0.758550000000     0.380270000000     0.0558231  
H378     H      0.409180000000     0.743540000000     0.523410000000     0.0499369  
H379     H      0.430260000000     0.808710000000     0.362030000000     0.0412381  
H380     H      0.395980000000     0.680450000000     0.498990000000     0.0266678  
H381     H      0.362190000000     0.736050000000     0.440450000000     0.0531783  
H382     H      0.466350000000     0.763180000000     0.460340000000     0.0545129  
H383     H      0.403070000000     0.696880000000     0.547180000000     0.0392046  
H384     H      0.390270000000     0.804100000000     0.453190000000     0.0227717  
H385     H      0.804340000000     0.114970000000     0.977150000000     0.0445048  
H386     H      0.913230000000     0.157600000000     0.049590000000     0.0258702  
H387     H      0.838630000000     0.583520000000     0.895870000000     0.0268637  
H388     H      0.874360000000     0.096450000000     0.945960000000     0.0443306  
H389     H      0.899220000000     0.123390000000     0.997880000000     0.0441392  
H390     H      0.832140000000     0.141070000000     0.028310000000     0.0440419  
H391     H      0.767600000000     0.567060000000     0.944620000000     0.040268   
H392     H      0.938970000000     0.178260000000     0.011000000000     0.0382714  
H393     H      0.848670000000     0.068460000000     0.979540000000     0.0542695  
H394     H      0.848320000000     0.165420000000     0.986370000000     0.0533999  
H395     H      0.837490000000     0.549620000000     0.912590000000     0.0395068  
H396     H      0.874210000000     0.167850000000     0.067420000000     0.0258161  
H397     H      0.799400000000     0.581700000000     0.001880000000     0.0523409  
H398     H      0.903590000000     0.150760000000     0.961150000000     0.0534326  
H399     H      0.869940000000     0.196460000000     0.042600000000     0.0379339  
H400     H      0.797480000000     0.593500000000     0.914050000000     0.0279242  
H401     H      0.603120000000     0.378980000000     0.875830000000     0.0438821  
H402     H      0.070090000000     0.320370000000     0.020230000000     0.0263247  
H403     H      0.624330000000     0.454110000000     0.935400000000     0.0266998  
H404     H      0.604220000000     0.417620000000     0.984910000000     0.0440334  
H405     H      0.086860000000     0.372190000000     0.014690000000     0.0437796  
H406     H      0.587500000000     0.333350000000     0.904790000000     0.0438932  
H407     H      0.652130000000     0.425020000000     0.857370000000     0.0393061  
H408     H      0.038990000000     0.324810000000     0.033100000000     0.0399742  
H409     H      0.635960000000     0.412390000000     0.987280000000     0.0537565  
H410     H      0.054320000000     0.336140000000     0.905240000000     0.0535291  
H411     H      0.654340000000     0.463920000000     0.969120000000     0.0395311  
H412     H      0.071930000000     0.298790000000     0.957310000000     0.0263337  
H413     H      0.635420000000     0.382050000000     0.899770000000     0.0533578  
H414     H      0.054240000000     0.366700000000     0.989170000000     0.0538353  
H415     H      0.041420000000     0.285280000000     0.923490000000     0.0378578  
H416     H      0.622730000000     0.431540000000     0.872640000000     0.0266605  
H417     H      0.683830000000     0.410430000000     0.156940000000     0.0438505  
H418     H      0.771940000000     0.468160000000     0.067100000000     0.0337385  
H419     H      0.734830000000     0.383290000000     0.218370000000     0.0269855  
H420     H      0.771020000000     0.419530000000     0.175260000000     0.0435617  
H421     H      0.782800000000     0.444940000000     0.119780000000     0.0444037  
H422     H      0.701550000000     0.426940000000     0.089480000000     0.0511406  
H423     H      0.675840000000     0.405660000000     0.228930000000     0.0401463  
H424     H      0.788250000000     0.447700000000     0.046680000000     0.0334495  
H425     H      0.767580000000     0.450440000000     0.194880000000     0.0513828  
H426     H      0.688550000000     0.387930000000     0.102670000000     0.044542   
H427     H      0.761850000000     0.414740000000     0.246550000000     0.0392593  
H428     H      0.695500000000     0.395930000000     0.031170000000     0.0385819  
H429     H      0.709560000000     0.443670000000     0.182770000000     0.052201   
H430     H      0.766000000000     0.408310000000     0.096620000000     0.0499797  
H431     H      0.718630000000     0.382800000000     0.052070000000     0.0293369  
H432     H      0.682860000000     0.377480000000     0.208210000000     0.0280898  
H433     H      0.795250000000     0.452870000000     0.748960000000     0.044891   
H434     H      0.861080000000     0.395180000000     0.736270000000     0.025109   
H435     H      0.747660000000     0.381700000000     0.826120000000     0.0288431  
H436     H      0.794450000000     0.383890000000     0.826390000000     0.0446522  
H437     H      0.830190000000     0.386500000000     0.789430000000     0.0441976  
H438     H      0.832640000000     0.452430000000     0.718380000000     0.0443602  
H439     H      0.764240000000     0.460290000000     0.796580000000     0.0412211  
H440     H      0.832590000000     0.356420000000     0.730180000000     0.0382347  
H441     H      0.813960000000     0.421740000000     0.844970000000     0.0524187  
H442     H      0.798920000000     0.420170000000     0.700690000000     0.0544401  
H443     H      0.764470000000     0.393710000000     0.873560000000     0.039668   
H444     H      0.863160000000     0.434500000000     0.695230000000     0.0261781  
H445     H      0.814090000000     0.466630000000     0.794790000000     0.0530847  
H446     H      0.796450000000     0.364040000000     0.761930000000     0.0560615  
H447     H      0.836670000000     0.426020000000     0.656530000000     0.0407033  
H448     H      0.747980000000     0.422020000000     0.779360000000     0.0293942  
H449     H      0.672090000000     0.300660000000     0.478490000000     0.0425566  
H450     H      0.619270000000     0.369320000000     0.465680000000     0.0275005  
H451     H      0.735820000000     0.389250000000     0.513110000000     0.0315305  
H452     H      0.691060000000     0.380940000000     0.549500000000     0.043277   
H453     H      0.652240000000     0.378170000000     0.517540000000     0.0440073  
H454     H      0.637490000000     0.307550000000     0.449800000000     0.0431696  
H455     H      0.721510000000     0.308730000000     0.496760000000     0.0394457  
H456     H      0.648660000000     0.407650000000     0.458390000000     0.0382179  
H457     H      0.687170000000     0.347530000000     0.571090000000     0.0495506  
H458     H      0.672610000000     0.334030000000     0.427920000000     0.0547376  
H459     H      0.740130000000     0.387530000000     0.565030000000     0.0421409  
H460     H      0.612720000000     0.330010000000     0.422400000000     0.026735   
H461     H      0.675940000000     0.301160000000     0.530160000000     0.050409   
H462     H      0.684720000000     0.398260000000     0.487060000000     0.0579174  
H463     H      0.639040000000     0.336060000000     0.384470000000     0.0382151  
H464     H      0.724550000000     0.340740000000     0.471020000000     0.0270998  
H465     H      0.817970000000     0.121850000000     0.341890000000     0.0440415  
H466     H      0.700250000000     0.533050000000     0.376650000000     0.0277307  
H467     H      0.776160000000     0.140970000000     0.251450000000     0.0273322  
H468     H      0.736530000000     0.105720000000     0.288330000000     0.0441118  
H469     H      0.712390000000     0.067150000000     0.326410000000     0.044146   
H470     H      0.791210000000     0.087850000000     0.386680000000     0.0442619  
H471     H      0.842570000000     0.174090000000     0.318440000000     0.0388782  
H472     H      0.693410000000     0.510410000000     0.333570000000     0.0394565  
H473     H      0.744240000000     0.130060000000     0.330030000000     0.0522383  
H474     H      0.789130000000     0.064460000000     0.345660000000     0.052422   
H475     H      0.760050000000     0.161400000000     0.273120000000     0.0403608  
H476     H      0.746860000000     0.549800000000     0.415350000000     0.0276185  
H477     H      0.804470000000     0.143840000000     0.366570000000     0.0520898  
H478     H      0.729770000000     0.051300000000     0.296550000000     0.0506012  
H479     H      0.770160000000     0.534060000000     0.404480000000     0.0403611  
H480     H      0.823640000000     0.146330000000     0.280820000000     0.0271619  
H481     H      0.775100000000     0.356290000000     0.431000000000     0.04678    
H482     H      0.784760000000     0.337780000000     0.275060000000     0.026438   
H483     H      0.830110000000     0.441130000000     0.410130000000     0.0268592  
H484     H      0.835390000000     0.417900000000     0.354020000000     0.044688   
H485     H      0.821370000000     0.383700000000     0.304720000000     0.0441367  
H486     H      0.758140000000     0.317890000000     0.386910000000     0.0447357  
H487     H      0.755630000000     0.392500000000     0.449480000000     0.0385425  
H488     H      0.820870000000     0.342160000000     0.267530000000     0.0383925  
H489     H      0.801610000000     0.412680000000     0.331860000000     0.0568103  
H490     H      0.793660000000     0.320290000000     0.390370000000     0.0547708  
H491     H      0.819250000000     0.456850000000     0.370640000000     0.0405608  
H492     H      0.749430000000     0.299000000000     0.321960000000     0.027716   
H493     H      0.749710000000     0.359280000000     0.397750000000     0.0519796  
H494     H      0.837440000000     0.365490000000     0.332240000000     0.0535299  
H495     H      0.760880000000     0.276970000000     0.350400000000     0.0408871  
H496     H      0.794530000000     0.405440000000     0.454660000000     0.0288928  
H497     H      0.841890000000     0.284550000000     0.100530000000     0.0443419  
H498     H      0.941810000000     0.374360000000     0.025620000000     0.0254768  
H499     H      0.912720000000     0.290440000000     0.166640000000     0.0292979  
H500     H      0.931680000000     0.343310000000     0.149630000000     0.0447794  
H501     H      0.941990000000     0.366000000000     0.092220000000     0.0441724  
H502     H      0.859610000000     0.313310000000     0.047700000000     0.0441268  
H503     H      0.828500000000     0.255040000000     0.161230000000     0.0407062  
H504     H      0.967260000000     0.360420000000     0.029540000000     0.0395186  
H505     H      0.900630000000     0.343470000000     0.171250000000     0.0539176  
H506     H      0.871500000000     0.285610000000     0.046000000000     0.0547737  
H507     H      0.915760000000     0.312430000000     0.209310000000     0.0431431  
H508     H      0.892870000000     0.343720000000     0.999620000000     0.0256052  
H509     H      0.846400000000     0.307920000000     0.141720000000     0.0533357  
H510     H      0.944120000000     0.332010000000     0.086090000000     0.0541912  
H511     H      0.880310000000     0.306010000000     0.982140000000     0.0390002  
H512     H      0.859390000000     0.255480000000     0.137140000000     0.02884    
H513     H      0.021510000000     0.270100000000     0.776170000000     0.0442954  
H514     H      0.902550000000     0.241380000000     0.803000000000     0.0264018  
H515     H      0.982480000000     0.184140000000     0.728870000000     0.0262654  
H516     H      0.945670000000     0.188100000000     0.760880000000     0.0442426  
H517     H      0.916610000000     0.206420000000     0.784580000000     0.0439467  
H518     H      0.992670000000     0.295130000000     0.783810000000     0.0459164  
H519     H      0.043670000000     0.261480000000     0.715070000000     0.0358588  
H520     H      0.897660000000     0.219670000000     0.846590000000     0.0376627  
H521     H      0.940400000000     0.208490000000     0.721700000000     0.0524934  
H522     H      0.992200000000     0.278240000000     0.830370000000     0.0565829  
H523     H      0.960600000000     0.183420000000     0.687790000000     0.0393172  
H524     H      0.945770000000     0.291950000000     0.795290000000     0.0265387  
H525     H      0.008030000000     0.277020000000     0.730790000000     0.0583972  
H526     H      0.936540000000     0.210090000000     0.829110000000     0.0527904  
H527     H      0.969970000000     0.310490000000     0.836250000000     0.0389319  
H528     H      0.026510000000     0.229950000000     0.748370000000     0.0238707  
H529     H      0.651860000000     0.307910000000     0.675610000000     0.0440975  
H530     H      0.113080000000     0.288120000000     0.519450000000     0.0249695  
H531     H      0.653730000000     0.230880000000     0.665760000000     0.026643   
H532     H      0.633060000000     0.233160000000     0.606020000000     0.044171   
H533     H      0.121260000000     0.253570000000     0.554180000000     0.0423506  
H534     H      0.144210000000     0.331750000000     0.622020000000     0.0424183  
H535     H      0.696860000000     0.307800000000     0.704450000000     0.0383731  
H536     H      0.077000000000     0.255350000000     0.525550000000     0.0389689  
H537     H      0.667870000000     0.261900000000     0.585920000000     0.0517035  
H538     H      0.107660000000     0.303820000000     0.638300000000     0.0548082  
H539     H      0.680440000000     0.234010000000     0.629920000000     0.0395131  
H540     H      0.128100000000     0.333540000000     0.557760000000     0.0253734  
H541     H      0.683910000000     0.322550000000     0.644050000000     0.0514082  
H542     H      0.090360000000     0.242690000000     0.586850000000     0.0533833  
H543     H      0.102710000000     0.336210000000     0.590960000000     0.03901    
H544     H      0.662210000000     0.272670000000     0.706130000000     0.0262321  
H545     H      0.935350000000     0.343920000000     0.544320000000     0.0436527  
H546     H      0.827110000000     0.251240000000     0.578610000000     0.0266475  
H547     H      0.959010000000     0.343840000000     0.649650000000     0.0263863  
H548     H      0.908960000000     0.303610000000     0.656050000000     0.0444437  
H549     H      0.863580000000     0.268150000000     0.629340000000     0.0445493  
H550     H      0.888630000000     0.317950000000     0.523690000000     0.0422913  
H551     H      0.983710000000     0.341440000000     0.548670000000     0.0385821  
H552     H      0.812500000000     0.259330000000     0.621850000000     0.0409039  
H553     H      0.915560000000     0.277750000000     0.627570000000     0.053687   
H554     H      0.884720000000     0.342290000000     0.558270000000     0.0512796  
H555     H      0.959300000000     0.310660000000     0.666720000000     0.0377692  
H556     H      0.838550000000     0.283600000000     0.520070000000     0.0258443  
H557     H      0.932440000000     0.307530000000     0.538610000000     0.0488724  
H558     H      0.861230000000     0.301650000000     0.638880000000     0.0533885  
H559     H      0.839530000000     0.319130000000     0.523050000000     0.0390858  
H560     H      0.976950000000     0.363410000000     0.583900000000     0.0274338  
H561     H      0.877850000000     0.258450000000     0.483980000000     0.0427619  
H562     H      0.935140000000     0.194310000000     0.452500000000     0.0266527  
H563     H      0.933770000000     0.320420000000     0.412420000000     0.0260371  
H564     H      0.951090000000     0.285700000000     0.408170000000     0.0454048  
H565     H      0.948440000000     0.239440000000     0.418400000000     0.0450927  
H566     H      0.878080000000     0.214330000000     0.496890000000     0.0434963  
H567     H      0.853790000000     0.277780000000     0.435370000000     0.0378315  
H568     H      0.973190000000     0.220190000000     0.465280000000     0.0404611  
H569     H      0.919480000000     0.258550000000     0.380270000000     0.0559662  
H570     H      0.909180000000     0.243540000000     0.523410000000     0.0499718  
H571     H      0.930250000000     0.308710000000     0.362030000000     0.0415152  
H572     H      0.895980000000     0.180450000000     0.498990000000     0.0268461  
H573     H      0.862190000000     0.236050000000     0.440450000000     0.0531977  
H574     H      0.966350000000     0.263180000000     0.460340000000     0.054844   
H575     H      0.903070000000     0.196880000000     0.547180000000     0.0393414  
H576     H      0.890270000000     0.304100000000     0.453190000000     0.0228517  
H577     H      0.804340000000     0.614970000000     0.977150000000     0.0444518  
H578     H      0.913230000000     0.657600000000     0.049590000000     0.0258132  
H579     H      0.838630000000     0.083520000000     0.895870000000     0.0269481  
H580     H      0.874360000000     0.596450000000     0.945960000000     0.0442604  
H581     H      0.899220000000     0.623390000000     0.997880000000     0.044067   
H582     H      0.832140000000     0.641070000000     0.028310000000     0.0439887  
H583     H      0.767600000000     0.067060000000     0.944620000000     0.0404004  
H584     H      0.938970000000     0.678260000000     0.011000000000     0.0382375  
H585     H      0.848670000000     0.568460000000     0.979540000000     0.0541263  
H586     H      0.848320000000     0.665420000000     0.986370000000     0.0533772  
H587     H      0.837490000000     0.049620000000     0.912590000000     0.0396661  
H588     H      0.874210000000     0.667850000000     0.067420000000     0.0257717  
H589     H      0.799400000000     0.081700000000     0.001880000000     0.0524656  
H590     H      0.903590000000     0.650770000000     0.961150000000     0.0534056  
H591     H      0.869940000000     0.696460000000     0.042600000000     0.0379155  
H592     H      0.797480000000     0.093500000000     0.914050000000     0.0279984  
H593     H      0.603120000000     0.878990000000     0.875830000000     0.0439025  
H594     H      0.070090000000     0.820370000000     0.020230000000     0.0263152  
H595     H      0.624330000000     0.954110000000     0.935400000000     0.0265646  
H596     H      0.604220000000     0.917620000000     0.984910000000     0.0439984  
H597     H      0.086860000000     0.872190000000     0.014690000000     0.0437176  
H598     H      0.587500000000     0.833350000000     0.904790000000     0.0438837  
H599     H      0.652130000000     0.925020000000     0.857370000000     0.0392459  
H600     H      0.038990000000     0.824810000000     0.033100000000     0.0399641  
H601     H      0.635960000000     0.912390000000     0.987280000000     0.0537258  
H602     H      0.054320000000     0.836140000000     0.905240000000     0.0535137  
H603     H      0.654340000000     0.963930000000     0.969120000000     0.0393725  
H604     H      0.071930000000     0.798790000000     0.957310000000     0.0263225  
H605     H      0.635420000000     0.882050000000     0.899770000000     0.0534118  
H606     H      0.054240000000     0.866700000000     0.989170000000     0.0537524  
H607     H      0.041420000000     0.785280000000     0.923490000000     0.0378565  
H608     H      0.622730000000     0.931540000000     0.872640000000     0.026569   
H609     H      0.683830000000     0.910430000000     0.156940000000     0.0438014  
H610     H      0.771940000000     0.968170000000     0.067100000000     0.0335751  
H611     H      0.734830000000     0.883290000000     0.218370000000     0.0269823  
H612     H      0.771020000000     0.919530000000     0.175260000000     0.043511   
H613     H      0.782800000000     0.944940000000     0.119780000000     0.0443149  
H614     H      0.701550000000     0.926940000000     0.089480000000     0.0510717  
H615     H      0.675840000000     0.905660000000     0.228930000000     0.0400946  
H616     H      0.788250000000     0.947700000000     0.046680000000     0.033327   
H617     H      0.767580000000     0.950440000000     0.194880000000     0.0512595  
H618     H      0.688550000000     0.887930000000     0.102670000000     0.0445233  
H619     H      0.761850000000     0.914740000000     0.246550000000     0.0392224  
H620     H      0.695500000000     0.895930000000     0.031170000000     0.0385761  
H621     H      0.709560000000     0.943670000000     0.182770000000     0.0520786  
H622     H      0.766000000000     0.908310000000     0.096620000000     0.0499544  
H623     H      0.718620000000     0.882800000000     0.052070000000     0.029331   
H624     H      0.682860000000     0.877480000000     0.208210000000     0.0280816  
H625     H      0.795250000000     0.952870000000     0.748960000000     0.0447957  
H626     H      0.861080000000     0.895180000000     0.736270000000     0.0250285  
H627     H      0.747660000000     0.881700000000     0.826120000000     0.0288429  
H628     H      0.794450000000     0.883890000000     0.826390000000     0.0446286  
H629     H      0.830190000000     0.886500000000     0.789430000000     0.0441624  
H630     H      0.832640000000     0.952430000000     0.718380000000     0.0442462  
H631     H      0.764240000000     0.960290000000     0.796580000000     0.0410992  
H632     H      0.832580000000     0.856420000000     0.730180000000     0.0382046  
H633     H      0.813960000000     0.921740000000     0.844970000000     0.0523318  
H634     H      0.798920000000     0.920170000000     0.700690000000     0.0544006  
H635     H      0.764470000000     0.893710000000     0.873560000000     0.0396442  
H636     H      0.863160000000     0.934500000000     0.695230000000     0.0260764  
H637     H      0.814090000000     0.966630000000     0.794790000000     0.0529261  
H638     H      0.796450000000     0.864040000000     0.761930000000     0.0560577  
H639     H      0.836680000000     0.926020000000     0.656530000000     0.0406234  
H640     H      0.747980000000     0.922030000000     0.779360000000     0.0293645  
H641     H      0.672090000000     0.800660000000     0.478490000000     0.0425092  
H642     H      0.619270000000     0.869320000000     0.465680000000     0.0274655  
H643     H      0.735820000000     0.889250000000     0.513110000000     0.031491   
H644     H      0.691060000000     0.880940000000     0.549500000000     0.0431965  
H645     H      0.652240000000     0.878180000000     0.517540000000     0.0439544  
H646     H      0.637490000000     0.807550000000     0.449800000000     0.0431408  
H647     H      0.721510000000     0.808730000000     0.496760000000     0.0394446  
H648     H      0.648660000000     0.907650000000     0.458390000000     0.0381304  
H649     H      0.687170000000     0.847540000000     0.571090000000     0.0495616  
H650     H      0.672620000000     0.834030000000     0.427920000000     0.054686   
H651     H      0.740130000000     0.887530000000     0.565030000000     0.0420917  
H652     H      0.612720000000     0.830010000000     0.422400000000     0.0267204  
H653     H      0.675940000000     0.801160000000     0.530160000000     0.0503687  
H654     H      0.684720000000     0.898260000000     0.487060000000     0.0578604  
H655     H      0.639040000000     0.836060000000     0.384470000000     0.0382066  
H656     H      0.724550000000     0.840740000000     0.471020000000     0.027107   
H657     H      0.817970000000     0.621850000000     0.341890000000     0.0440046  
H658     H      0.700250000000     0.033050000000     0.376650000000     0.0278943  
H659     H      0.776160000000     0.640970000000     0.251450000000     0.0272701  
H660     H      0.736530000000     0.605720000000     0.288330000000     0.0440443  
H661     H      0.712390000000     0.567150000000     0.326410000000     0.0441011  
H662     H      0.791210000000     0.587850000000     0.386680000000     0.0441664  
H663     H      0.842580000000     0.674090000000     0.318440000000     0.0387891  
H664     H      0.693410000000     0.010410000000     0.333570000000     0.0397686  
H665     H      0.744240000000     0.630060000000     0.330030000000     0.0521991  
H666     H      0.789130000000     0.564460000000     0.345660000000     0.0522233  
H667     H      0.760050000000     0.661400000000     0.273120000000     0.040321   
H668     H      0.746860000000     0.049800000000     0.415350000000     0.0277475  
H669     H      0.804480000000     0.643840000000     0.366570000000     0.0520891  
H670     H      0.729770000000     0.551300000000     0.296550000000     0.0504483  
H671     H      0.770160000000     0.034060000000     0.404480000000     0.0406427  
H672     H      0.823640000000     0.646330000000     0.280820000000     0.0270519  
H673     H      0.775100000000     0.856290000000     0.431000000000     0.0467752  
H674     H      0.784750000000     0.837770000000     0.275060000000     0.0264518  
H675     H      0.830110000000     0.941130000000     0.410130000000     0.0267491  
H676     H      0.835390000000     0.917900000000     0.354020000000     0.0446269  
H677     H      0.821370000000     0.883700000000     0.304720000000     0.0440832  
H678     H      0.758140000000     0.817890000000     0.386910000000     0.0447427  
H679     H      0.755630000000     0.892500000000     0.449480000000     0.0385208  
H680     H      0.820870000000     0.842150000000     0.267530000000     0.0384083  
H681     H      0.801610000000     0.912670000000     0.331860000000     0.0567896  
H682     H      0.793670000000     0.820290000000     0.390370000000     0.0546954  
H683     H      0.819250000000     0.956850000000     0.370640000000     0.0404247  
H684     H      0.749430000000     0.799000000000     0.321960000000     0.0277129  
H685     H      0.749710000000     0.859280000000     0.397750000000     0.0519833  
H686     H      0.837440000000     0.865490000000     0.332240000000     0.0534776  
H687     H      0.760880000000     0.776970000000     0.350400000000     0.0408796  
H688     H      0.794530000000     0.905440000000     0.454660000000     0.028841   
H689     H      0.841890000000     0.784550000000     0.100530000000     0.0443381  
H690     H      0.941810000000     0.874360000000     0.025620000000     0.0253998  
H691     H      0.912720000000     0.790440000000     0.166640000000     0.0292771  
H692     H      0.931680000000     0.843310000000     0.149630000000     0.0447411  
H693     H      0.941980000000     0.866000000000     0.092220000000     0.0441193  
H694     H      0.859610000000     0.813310000000     0.047700000000     0.0440972  
H695     H      0.828490000000     0.755040000000     0.161230000000     0.040675   
H696     H      0.967260000000     0.860420000000     0.029540000000     0.0394519  
H697     H      0.900630000000     0.843470000000     0.171250000000     0.053879   
H698     H      0.871500000000     0.785610000000     0.046000000000     0.0548062  
H699     H      0.915760000000     0.812430000000     0.209310000000     0.0431105  
H700     H      0.892870000000     0.843720000000     0.999620000000     0.0255413  
H701     H      0.846400000000     0.807920000000     0.141720000000     0.0533632  
H702     H      0.944120000000     0.832010000000     0.086090000000     0.054177   
H703     H      0.880310000000     0.806010000000     0.982140000000     0.0389584  
H704     H      0.859390000000     0.755480000000     0.137140000000     0.0288096  
H705     H      0.021510000000     0.770100000000     0.776170000000     0.0442822  
H706     H      0.902550000000     0.741380000000     0.803000000000     0.0263995  
H707     H      0.982480000000     0.684130000000     0.728870000000     0.0261912  
H708     H      0.945670000000     0.688100000000     0.760880000000     0.0441964  
H709     H      0.916610000000     0.706420000000     0.784580000000     0.043905   
H710     H      0.992670000000     0.795130000000     0.783810000000     0.0459007  
H711     H      0.043670000000     0.761480000000     0.715070000000     0.0358413  
H712     H      0.897660000000     0.719670000000     0.846590000000     0.037655   
H713     H      0.940400000000     0.708490000000     0.721700000000     0.0524633  
H714     H      0.992200000000     0.778240000000     0.830370000000     0.0565821  
H715     H      0.960600000000     0.683420000000     0.687790000000     0.03925    
H716     H      0.945770000000     0.791950000000     0.795290000000     0.0265123  
H717     H      0.008030000000     0.777020000000     0.730790000000     0.058392   
H718     H      0.936540000000     0.710090000000     0.829110000000     0.0527631  
H719     H      0.969970000000     0.810490000000     0.836250000000     0.0388946  
H720     H      0.026510000000     0.729950000000     0.748370000000     0.0238405  
H721     H      0.651860000000     0.807910000000     0.675610000000     0.044031   
H722     H      0.113080000000     0.788120000000     0.519450000000     0.0249413  
H723     H      0.653730000000     0.730880000000     0.665760000000     0.0266115  
H724     H      0.633060000000     0.733170000000     0.606020000000     0.0441278  
H725     H      0.121260000000     0.753570000000     0.554180000000     0.0423341  
H726     H      0.144210000000     0.831750000000     0.622020000000     0.0424029  
H727     H      0.696860000000     0.807800000000     0.704450000000     0.0383641  
H728     H      0.077000000000     0.755350000000     0.525550000000     0.0389248  
H729     H      0.667870000000     0.761900000000     0.585920000000     0.0516862  
H730     H      0.107660000000     0.803820000000     0.638300000000     0.054796   
H731     H      0.680440000000     0.734010000000     0.629920000000     0.0394806  
H732     H      0.128100000000     0.833540000000     0.557760000000     0.0253562  
H733     H      0.683910000000     0.822560000000     0.644050000000     0.0513651  
H734     H      0.090360000000     0.742690000000     0.586850000000     0.0533562  
H735     H      0.102710000000     0.836220000000     0.590960000000     0.0389702  
H736     H      0.662210000000     0.772670000000     0.706130000000     0.0262097  
H737     H      0.935350000000     0.843920000000     0.544320000000     0.043619   
H738     H      0.827120000000     0.751240000000     0.578610000000     0.0266545  
H739     H      0.959010000000     0.843840000000     0.649650000000     0.0263414  
H740     H      0.908960000000     0.803610000000     0.656050000000     0.0444284  
H741     H      0.863580000000     0.768150000000     0.629340000000     0.0445185  
H742     H      0.888630000000     0.817950000000     0.523690000000     0.0422728  
H743     H      0.983710000000     0.841440000000     0.548670000000     0.0385434  
H744     H      0.812500000000     0.759330000000     0.621850000000     0.0409159  
H745     H      0.915560000000     0.777750000000     0.627570000000     0.0536788  
H746     H      0.884720000000     0.842290000000     0.558270000000     0.0512401  
H747     H      0.959310000000     0.810670000000     0.666720000000     0.0377515  
H748     H      0.838550000000     0.783600000000     0.520070000000     0.025839   
H749     H      0.932440000000     0.807530000000     0.538610000000     0.0488686  
H750     H      0.861230000000     0.801650000000     0.638880000000     0.0533614  
H751     H      0.839530000000     0.819130000000     0.523050000000     0.0390731  
H752     H      0.976950000000     0.863410000000     0.583900000000     0.0273686  
H753     H      0.877850000000     0.758450000000     0.483980000000     0.042756   
H754     H      0.935140000000     0.694310000000     0.452500000000     0.0266015  
H755     H      0.933770000000     0.820420000000     0.412420000000     0.0259965  
H756     H      0.951090000000     0.785690000000     0.408170000000     0.0453787  
H757     H      0.948440000000     0.739440000000     0.418400000000     0.0450702  
H758     H      0.878080000000     0.714330000000     0.496890000000     0.0434787  
H759     H      0.853790000000     0.777780000000     0.435370000000     0.0378195  
H760     H      0.973190000000     0.720190000000     0.465280000000     0.0404259  
H761     H      0.919480000000     0.758550000000     0.380270000000     0.0559515  
H762     H      0.909180000000     0.743540000000     0.523410000000     0.0499705  
H763     H      0.930260000000     0.808710000000     0.362030000000     0.0414663  
H764     H      0.895980000000     0.680450000000     0.498990000000     0.0267844  
H765     H      0.862190000000     0.736050000000     0.440450000000     0.0531912  
H766     H      0.966350000000     0.763180000000     0.460340000000     0.0548329  
H767     H      0.903080000000     0.696880000000     0.547180000000     0.0393014  
H768     H      0.890270000000     0.804100000000     0.453190000000     0.0228334  
In1      In     0.500970000000     0.262930000000     0.592910000000     2.41364    
In2      In     0.336930000000     0.261790000000     0.298320000000     2.41165    
In3      In     0.273600000000     0.324820000000     0.614950000000     2.41533    
In4      In     0.219400000000     0.434770000000     0.355380000000     2.3908     
In5      In     0.242220000000     0.464770000000     0.929120000000     2.39916    
In6      In     0.448120000000     0.270260000000     0.963930000000     2.39641    
In7      In     0.500970000000     0.762930000000     0.592910000000     2.41365    
In8      In     0.336930000000     0.761790000000     0.298320000000     2.41169    
In9      In     0.273610000000     0.824820000000     0.614950000000     2.41529    
In10     In     0.219400000000     0.934770000000     0.355380000000     2.39075    
In11     In     0.242220000000     0.964770000000     0.929120000000     2.39778    
In12     In     0.448120000000     0.770260000000     0.963930000000     2.39643    
In13     In     0.000970000000     0.262930000000     0.592910000000     2.40362    
In14     In     0.836930000000     0.261790000000     0.298320000000     2.41168    
In15     In     0.773600000000     0.324820000000     0.614950000000     2.41532    
In16     In     0.719400000000     0.434770000000     0.355380000000     2.39085    
In17     In     0.742220000000     0.464770000000     0.929120000000     2.39918    
In18     In     0.948120000000     0.270260000000     0.963930000000     2.39617    
In19     In     0.000970000000     0.762930000000     0.592910000000     2.4038     
In20     In     0.836930000000     0.761790000000     0.298320000000     2.41172    
In21     In     0.773600000000     0.824820000000     0.614950000000     2.41532    
In22     In     0.719400000000     0.934770000000     0.355380000000     2.39078    
In23     In     0.742220000000     0.964770000000     0.929120000000     2.39779    
In24     In     0.948120000000     0.770260000000     0.963930000000     2.39635    
N1       N      0.405310000000     0.189880000000     0.022090000000    -0.178172   
N2       N      0.300750000000     0.555320000000     0.929670000000    -0.176334   
N3       N      0.536770000000     0.304920000000     0.976810000000    -0.174254   
N4       N      0.156580000000     0.443860000000     0.914880000000    -0.175575   
N5       N      0.242150000000     0.428860000000     0.035530000000    -0.177304   
N6       N      0.218680000000     0.410720000000     0.241230000000    -0.176014   
N7       N      0.330530000000     0.388300000000     0.691260000000    -0.174977   
N8       N      0.263310000000     0.427820000000     0.837770000000    -0.175511   
N9       N      0.148750000000     0.374740000000     0.419550000000    -0.17638    
N10      N      0.233440000000     0.348500000000     0.531830000000    -0.174568   
N11      N      0.232040000000     0.519820000000     0.367190000000    -0.1767     
N12      N      0.302120000000     0.170540000000     0.296490000000    -0.176782   
N13      N      0.292940000000     0.308370000000     0.309530000000    -0.176518   
N14      N      0.283830000000     0.423700000000     0.405890000000    -0.174513   
N15      N      0.424210000000     0.329310000000     0.006430000000    -0.175254   
N16      N      0.371330000000     0.282280000000     0.188460000000    -0.174025   
N17      N      0.435150000000     0.264750000000     0.846160000000    -0.177838   
N18      N      0.501310000000     0.224990000000     0.697220000000    -0.176918   
N19      N      0.586330000000     0.293700000000     0.561250000000    -0.174625   
N20      N      0.192350000000     0.274000000000     0.663370000000    -0.17675    
N21      N      0.325180000000     0.291550000000     0.574890000000    -0.175521   
N22      N      0.471560000000     0.322590000000     0.606480000000    -0.178032   
N23      N      0.441060000000     0.212390000000     0.509750000000    -0.174892   
N24      N      0.389630000000     0.290320000000     0.394740000000    -0.175161   
N25      N      0.405310000000     0.689880000000     0.022090000000    -0.178178   
N26      N      0.300740000000     0.055320000000     0.929670000000    -0.176264   
N27      N      0.536770000000     0.804920000000     0.976810000000    -0.174171   
N28      N      0.156580000000     0.943860000000     0.914880000000    -0.175626   
N29      N      0.242150000000     0.928860000000     0.035530000000    -0.177302   
N30      N      0.218680000000     0.910720000000     0.241230000000    -0.176027   
N31      N      0.330530000000     0.888300000000     0.691260000000    -0.175007   
N32      N      0.263310000000     0.927820000000     0.837770000000    -0.175528   
N33      N      0.148750000000     0.874740000000     0.419550000000    -0.176396   
N34      N      0.233440000000     0.848500000000     0.531830000000    -0.174567   
N35      N      0.232040000000     0.019820000000     0.367190000000    -0.17623    
N36      N      0.302120000000     0.670540000000     0.296490000000    -0.17679    
N37      N      0.292940000000     0.808370000000     0.309530000000    -0.1765     
N38      N      0.283830000000     0.923700000000     0.405890000000    -0.174637   
N39      N      0.424220000000     0.829310000000     0.006430000000    -0.175339   
N40      N      0.371330000000     0.782280000000     0.188460000000    -0.174072   
N41      N      0.435150000000     0.764750000000     0.846160000000    -0.177858   
N42      N      0.501310000000     0.724990000000     0.697220000000    -0.176906   
N43      N      0.586330000000     0.793700000000     0.561250000000    -0.174651   
N44      N      0.192350000000     0.774000000000     0.663370000000    -0.176754   
N45      N      0.325180000000     0.791550000000     0.574890000000    -0.175498   
N46      N      0.471560000000     0.822590000000     0.606480000000    -0.178042   
N47      N      0.441050000000     0.712390000000     0.509750000000    -0.174895   
N48      N      0.389630000000     0.790320000000     0.394740000000    -0.175177   
N49      N      0.905310000000     0.189880000000     0.022090000000    -0.178101   
N50      N      0.800740000000     0.555320000000     0.929670000000    -0.17634    
N51      N      0.036770000000     0.304920000000     0.976810000000    -0.173509   
N52      N      0.656580000000     0.443860000000     0.914880000000    -0.175539   
N53      N      0.742150000000     0.428860000000     0.035530000000    -0.177299   
N54      N      0.718680000000     0.410720000000     0.241230000000    -0.175989   
N55      N      0.830530000000     0.388300000000     0.691260000000    -0.174947   
N56      N      0.763310000000     0.427820000000     0.837770000000    -0.175501   
N57      N      0.648750000000     0.374740000000     0.419550000000    -0.1763     
N58      N      0.733440000000     0.348500000000     0.531830000000    -0.174567   
N59      N      0.732040000000     0.519820000000     0.367190000000    -0.176674   
N60      N      0.802120000000     0.170540000000     0.296490000000    -0.176727   
N61      N      0.792940000000     0.308370000000     0.309530000000    -0.1765     
N62      N      0.783830000000     0.423700000000     0.405890000000    -0.174499   
N63      N      0.924220000000     0.329310000000     0.006430000000    -0.175235   
N64      N      0.871330000000     0.282280000000     0.188460000000    -0.173999   
N65      N      0.935150000000     0.264750000000     0.846160000000    -0.177738   
N66      N      0.001310000000     0.224990000000     0.697220000000    -0.177883   
N67      N      0.086330000000     0.293700000000     0.561250000000    -0.174715   
N68      N      0.692350000000     0.274000000000     0.663370000000    -0.17673    
N69      N      0.825180000000     0.291550000000     0.574890000000    -0.175515   
N70      N      0.971560000000     0.322590000000     0.606480000000    -0.177769   
N71      N      0.941060000000     0.212390000000     0.509750000000    -0.174717   
N72      N      0.889630000000     0.290320000000     0.394740000000    -0.175128   
N73      N      0.905310000000     0.689880000000     0.022090000000    -0.178108   
N74      N      0.800740000000     0.055320000000     0.929670000000    -0.176254   
N75      N      0.036770000000     0.804920000000     0.976810000000    -0.173429   
N76      N      0.656580000000     0.943860000000     0.914880000000    -0.175592   
N77      N      0.742150000000     0.928860000000     0.035530000000    -0.177292   
N78      N      0.718680000000     0.910720000000     0.241230000000    -0.176002   
N79      N      0.830530000000     0.888300000000     0.691260000000    -0.174977   
N80      N      0.763310000000     0.927820000000     0.837770000000    -0.175517   
N81      N      0.648750000000     0.874740000000     0.419550000000    -0.176312   
N82      N      0.733440000000     0.848500000000     0.531830000000    -0.174564   
N83      N      0.732040000000     0.019820000000     0.367190000000    -0.176213   
N84      N      0.802120000000     0.670540000000     0.296490000000    -0.176771   
N85      N      0.792940000000     0.808370000000     0.309530000000    -0.176485   
N86      N      0.783830000000     0.923700000000     0.405890000000    -0.174537   
N87      N      0.924210000000     0.829310000000     0.006430000000    -0.175207   
N88      N      0.871330000000     0.782280000000     0.188460000000    -0.174047   
N89      N      0.935150000000     0.764750000000     0.846160000000    -0.177804   
N90      N      0.001310000000     0.724990000000     0.697220000000    -0.177895   
N91      N      0.086330000000     0.793700000000     0.561250000000    -0.174711   
N92      N      0.692350000000     0.774000000000     0.663370000000    -0.17673    
N93      N      0.825180000000     0.791550000000     0.574890000000    -0.175493   
N94      N      0.971560000000     0.822590000000     0.606480000000    -0.177782   
N95      N      0.941060000000     0.712390000000     0.509750000000    -0.174743   
N96      N      0.889630000000     0.790320000000     0.394740000000    -0.175146   
O1       O      0.481090000000     0.285890000000     0.628770000000    -0.518695   
O2       O      0.495590000000     0.302570000000     0.571270000000    -0.507078   
O3       O      0.482560000000     0.222310000000     0.635010000000    -0.497098   
O4       O      0.454030000000     0.228510000000     0.573470000000    -0.50346    
O5       O      0.536870000000     0.257120000000     0.562810000000    -0.498259   
O6       O      0.488850000000     0.242900000000     0.531600000000    -0.499663   
O7       O      0.520850000000     0.263300000000     0.652020000000    -0.514677   
O8       O      0.549120000000     0.300250000000     0.587380000000    -0.503367   
O9       O      0.339530000000     0.219190000000     0.308530000000    -0.519351   
O10      O      0.298370000000     0.213430000000     0.288570000000    -0.499588   
O11      O      0.382180000000     0.284630000000     0.328010000000    -0.492337   
O12      O      0.375620000000     0.286110000000     0.255810000000    -0.489278   
O13      O      0.298170000000     0.266760000000     0.321220000000    -0.498824   
O14      O      0.332610000000     0.257440000000     0.231930000000    -0.507275   
O15      O      0.343990000000     0.268750000000     0.364380000000    -0.506151   
O16      O      0.330700000000     0.301920000000     0.285690000000    -0.517397   
O17      O      0.230770000000     0.279650000000     0.623980000000    -0.502231   
O18      O      0.238480000000     0.316540000000     0.660560000000    -0.512478   
O19      O      0.261620000000     0.357970000000     0.587730000000    -0.497443   
O20      O      0.299900000000     0.339010000000     0.671890000000    -0.505193   
O21      O      0.291280000000     0.292210000000     0.617650000000    -0.50868    
O22      O      0.305850000000     0.373770000000     0.632110000000    -0.495964   
O23      O      0.250740000000     0.317970000000     0.555760000000    -0.503675   
O24      O      0.306540000000     0.324090000000     0.570920000000    -0.507124   
O25      O      0.207230000000     0.471340000000     0.342060000000    -0.505552   
O26      O      0.244780000000     0.483280000000     0.377930000000    -0.508527   
O27      O      0.180180000000     0.387370000000     0.366500000000    -0.501959   
O28      O      0.197570000000     0.420920000000     0.294450000000    -0.497482   
O29      O      0.267780000000     0.447370000000     0.363060000000    -0.482252   
O30      O      0.240240000000     0.425950000000     0.301990000000    -0.505458   
O31      O      0.185650000000     0.422970000000     0.404340000000    -0.509559   
O32      O      0.235670000000     0.413740000000     0.400890000000    -0.501453   
O33      O      0.253590000000     0.514090000000     0.935370000000    -0.50255    
O34      O      0.288800000000     0.505600000000     0.923400000000    -0.505645   
O35      O      0.252580000000     0.462630000000     0.864730000000    -0.500739   
O36      O      0.221380000000     0.427660000000     0.975440000000    -0.507255   
O37      O      0.200970000000     0.466300000000     0.948410000000    -0.496417   
O38      O      0.264580000000     0.464450000000     0.986830000000    -0.50751    
O39      O      0.253170000000     0.430160000000     0.903180000000    -0.506544   
O40      O      0.199490000000     0.445870000000     0.893490000000    -0.503091   
O41      O      0.443950000000     0.225730000000     0.985150000000    -0.510501   
O42      O      0.410610000000     0.235500000000     0.002740000000    -0.509388   
O43      O      0.423530000000     0.244570000000     0.908420000000    -0.509214   
O44      O      0.457690000000     0.312880000000     0.997420000000    -0.491309   
O45      O      0.492750000000     0.277460000000     0.943420000000    -0.500403   
O46      O      0.415250000000     0.287230000000     0.970810000000    -0.501705   
O47      O      0.457140000000     0.290640000000     0.902850000000    -0.511607   
O48      O      0.490980000000     0.295040000000     0.999410000000    -0.486799   
O49      O      0.481090000000     0.785890000000     0.628770000000    -0.518679   
O50      O      0.495590000000     0.802570000000     0.571270000000    -0.507089   
O51      O      0.482560000000     0.722310000000     0.635010000000    -0.496991   
O52      O      0.454030000000     0.728510000000     0.573470000000    -0.503465   
O53      O      0.536870000000     0.757120000000     0.562810000000    -0.498297   
O54      O      0.488850000000     0.742900000000     0.531600000000    -0.49967    
O55      O      0.520850000000     0.763310000000     0.652020000000    -0.51459    
O56      O      0.549120000000     0.800250000000     0.587380000000    -0.503383   
O57      O      0.339530000000     0.719190000000     0.308530000000    -0.51936    
O58      O      0.298370000000     0.713430000000     0.288570000000    -0.499617   
O59      O      0.382180000000     0.784630000000     0.328010000000    -0.492359   
O60      O      0.375620000000     0.786110000000     0.255810000000    -0.489366   
O61      O      0.298170000000     0.766760000000     0.321220000000    -0.498841   
O62      O      0.332610000000     0.757450000000     0.231930000000    -0.50723    
O63      O      0.343990000000     0.768740000000     0.364380000000    -0.506191   
O64      O      0.330700000000     0.801920000000     0.285690000000    -0.517401   
O65      O      0.230770000000     0.779650000000     0.623980000000    -0.502155   
O66      O      0.238480000000     0.816540000000     0.660560000000    -0.512332   
O67      O      0.261620000000     0.857970000000     0.587730000000    -0.497332   
O68      O      0.299900000000     0.839010000000     0.671890000000    -0.505296   
O69      O      0.291280000000     0.792210000000     0.617650000000    -0.508846   
O70      O      0.305850000000     0.873770000000     0.632110000000    -0.496036   
O71      O      0.250740000000     0.817970000000     0.555760000000    -0.503594   
O72      O      0.306540000000     0.824090000000     0.570920000000    -0.507289   
O73      O      0.207230000000     0.971340000000     0.342060000000    -0.505708   
O74      O      0.244770000000     0.983280000000     0.377930000000    -0.508834   
O75      O      0.180180000000     0.887370000000     0.366500000000    -0.50197    
O76      O      0.197570000000     0.920920000000     0.294450000000    -0.49755    
O77      O      0.267780000000     0.947370000000     0.363060000000    -0.482333   
O78      O      0.240240000000     0.925950000000     0.301990000000    -0.505503   
O79      O      0.185650000000     0.922970000000     0.404340000000    -0.509641   
O80      O      0.235670000000     0.913740000000     0.400890000000    -0.501353   
O81      O      0.253590000000     0.014090000000     0.935370000000    -0.501853   
O82      O      0.288800000000     0.005600000000     0.923400000000    -0.504934   
O83      O      0.252580000000     0.962630000000     0.864730000000    -0.50084    
O84      O      0.221380000000     0.927660000000     0.975440000000    -0.507093   
O85      O      0.200970000000     0.966300000000     0.948410000000    -0.496501   
O86      O      0.264580000000     0.964460000000     0.986830000000    -0.507588   
O87      O      0.253170000000     0.930160000000     0.903180000000    -0.506482   
O88      O      0.199490000000     0.945870000000     0.893490000000    -0.503033   
O89      O      0.443950000000     0.725730000000     0.985150000000    -0.510523   
O90      O      0.410610000000     0.735500000000     0.002740000000    -0.509392   
O91      O      0.423520000000     0.744570000000     0.908420000000    -0.509192   
O92      O      0.457690000000     0.812880000000     0.997420000000    -0.491344   
O93      O      0.492750000000     0.777460000000     0.943420000000    -0.500449   
O94      O      0.415250000000     0.787230000000     0.970810000000    -0.501741   
O95      O      0.457140000000     0.790630000000     0.902850000000    -0.511814   
O96      O      0.490980000000     0.795040000000     0.999410000000    -0.486912   
O97      O      0.981090000000     0.285890000000     0.628770000000    -0.516585   
O98      O      0.995590000000     0.302570000000     0.571270000000    -0.504948   
O99      O      0.982560000000     0.222310000000     0.635010000000    -0.493179   
O100     O      0.954030000000     0.228510000000     0.573470000000    -0.501926   
O101     O      0.036870000000     0.257120000000     0.562810000000    -0.498192   
O102     O      0.988850000000     0.242900000000     0.531600000000    -0.497354   
O103     O      0.020850000000     0.263300000000     0.652020000000    -0.513475   
O104     O      0.049120000000     0.300250000000     0.587380000000    -0.503083   
O105     O      0.839530000000     0.219190000000     0.308530000000    -0.519305   
O106     O      0.798370000000     0.213430000000     0.288570000000    -0.499551   
O107     O      0.882180000000     0.284630000000     0.328010000000    -0.492234   
O108     O      0.875620000000     0.286110000000     0.255810000000    -0.489173   
O109     O      0.798170000000     0.266760000000     0.321220000000    -0.498796   
O110     O      0.832610000000     0.257440000000     0.231930000000    -0.507248   
O111     O      0.843990000000     0.268750000000     0.364380000000    -0.506138   
O112     O      0.830700000000     0.301920000000     0.285690000000    -0.517352   
O113     O      0.730770000000     0.279650000000     0.623980000000    -0.502203   
O114     O      0.738480000000     0.316540000000     0.660560000000    -0.512474   
O115     O      0.761620000000     0.357970000000     0.587730000000    -0.497431   
O116     O      0.799900000000     0.339010000000     0.671890000000    -0.505174   
O117     O      0.791280000000     0.292210000000     0.617650000000    -0.508657   
O118     O      0.805850000000     0.373770000000     0.632110000000    -0.495928   
O119     O      0.750740000000     0.317970000000     0.555760000000    -0.503662   
O120     O      0.806540000000     0.324090000000     0.570920000000    -0.507093   
O121     O      0.707230000000     0.471340000000     0.342060000000    -0.505456   
O122     O      0.744780000000     0.483280000000     0.377930000000    -0.508498   
O123     O      0.680180000000     0.387370000000     0.366500000000    -0.501882   
O124     O      0.697570000000     0.420920000000     0.294450000000    -0.497374   
O125     O      0.767780000000     0.447370000000     0.363060000000    -0.48223    
O126     O      0.740240000000     0.425950000000     0.301990000000    -0.50544    
O127     O      0.685650000000     0.422970000000     0.404340000000    -0.509488   
O128     O      0.735670000000     0.413740000000     0.400890000000    -0.501457   
O129     O      0.753590000000     0.514090000000     0.935370000000    -0.502516   
O130     O      0.788800000000     0.505600000000     0.923400000000    -0.505618   
O131     O      0.752580000000     0.462630000000     0.864730000000    -0.500709   
O132     O      0.721380000000     0.427660000000     0.975440000000    -0.507235   
O133     O      0.700970000000     0.466300000000     0.948410000000    -0.496382   
O134     O      0.764580000000     0.464450000000     0.986830000000    -0.507481   
O135     O      0.753170000000     0.430160000000     0.903180000000    -0.506516   
O136     O      0.699490000000     0.445870000000     0.893490000000    -0.503058   
O137     O      0.943950000000     0.225730000000     0.985150000000    -0.510171   
O138     O      0.910610000000     0.235500000000     0.002740000000    -0.509315   
O139     O      0.923520000000     0.244570000000     0.908420000000    -0.50904    
O140     O      0.957690000000     0.312880000000     0.997420000000    -0.491019   
O141     O      0.992750000000     0.277460000000     0.943420000000    -0.496948   
O142     O      0.915250000000     0.287230000000     0.970810000000    -0.501649   
O143     O      0.957140000000     0.290640000000     0.902850000000    -0.511232   
O144     O      0.990980000000     0.295040000000     0.999410000000    -0.483343   
O145     O      0.981090000000     0.785890000000     0.628770000000    -0.516599   
O146     O      0.995590000000     0.802570000000     0.571270000000    -0.504961   
O147     O      0.982570000000     0.722310000000     0.635010000000    -0.493281   
O148     O      0.954030000000     0.728510000000     0.573470000000    -0.501982   
O149     O      0.036870000000     0.757120000000     0.562810000000    -0.498172   
O150     O      0.988850000000     0.742900000000     0.531600000000    -0.497387   
O151     O      0.020850000000     0.763310000000     0.652020000000    -0.513422   
O152     O      0.049110000000     0.800250000000     0.587380000000    -0.503097   
O153     O      0.839530000000     0.719190000000     0.308530000000    -0.519317   
O154     O      0.798370000000     0.713430000000     0.288570000000    -0.499582   
O155     O      0.882180000000     0.784630000000     0.328010000000    -0.492258   
O156     O      0.875620000000     0.786110000000     0.255810000000    -0.489263   
O157     O      0.798170000000     0.766760000000     0.321220000000    -0.498813   
O158     O      0.832610000000     0.757450000000     0.231930000000    -0.507202   
O159     O      0.843990000000     0.768740000000     0.364380000000    -0.506178   
O160     O      0.830700000000     0.801920000000     0.285690000000    -0.517357   
O161     O      0.730770000000     0.779650000000     0.623980000000    -0.502217   
O162     O      0.738480000000     0.816540000000     0.660560000000    -0.512477   
O163     O      0.761620000000     0.857970000000     0.587730000000    -0.497452   
O164     O      0.799900000000     0.839010000000     0.671890000000    -0.505186   
O165     O      0.791280000000     0.792210000000     0.617650000000    -0.508669   
O166     O      0.805850000000     0.873770000000     0.632110000000    -0.495961   
O167     O      0.750740000000     0.817970000000     0.555760000000    -0.503667   
O168     O      0.806540000000     0.824090000000     0.570920000000    -0.50711    
O169     O      0.707230000000     0.971340000000     0.342060000000    -0.505611   
O170     O      0.744770000000     0.983280000000     0.377930000000    -0.508808   
O171     O      0.680180000000     0.887370000000     0.366500000000    -0.501887   
O172     O      0.697570000000     0.920920000000     0.294450000000    -0.49744    
O173     O      0.767780000000     0.947370000000     0.363060000000    -0.482343   
O174     O      0.740240000000     0.925950000000     0.301990000000    -0.505482   
O175     O      0.685650000000     0.922970000000     0.404340000000    -0.509567   
O176     O      0.735670000000     0.913740000000     0.400890000000    -0.501474   
O177     O      0.753590000000     0.014090000000     0.935370000000    -0.501823   
O178     O      0.788800000000     0.005600000000     0.923400000000    -0.5049     
O179     O      0.752580000000     0.962630000000     0.864730000000    -0.500814   
O180     O      0.721380000000     0.927660000000     0.975440000000    -0.507072   
O181     O      0.700970000000     0.966300000000     0.948410000000    -0.496468   
O182     O      0.764580000000     0.964460000000     0.986830000000    -0.507561   
O183     O      0.753170000000     0.930160000000     0.903180000000    -0.506455   
O184     O      0.699490000000     0.945870000000     0.893490000000    -0.503002   
O185     O      0.943950000000     0.725730000000     0.985150000000    -0.510188   
O186     O      0.910610000000     0.735500000000     0.002740000000    -0.50934    
O187     O      0.923530000000     0.744570000000     0.908420000000    -0.509224   
O188     O      0.957690000000     0.812880000000     0.997420000000    -0.491031   
O189     O      0.992750000000     0.777460000000     0.943420000000    -0.496988   
O190     O      0.915250000000     0.787230000000     0.970810000000    -0.501663   
O191     O      0.957140000000     0.790630000000     0.902850000000    -0.511498   
O192     O      0.990980000000     0.795040000000     0.999410000000    -0.483479   


