data_structure

_audit_creation_method RASPA-1.0
_audit_creation_date 2023-5-22
_audit_author_name 'Poobodin Mano'

_cell_length_a    41.8581
_cell_length_b    42.9695
_cell_length_c    46.446
_cell_angle_alpha 89.9939
_cell_angle_beta  90.3206
_cell_angle_gamma 120.093
_cell_volume      72277.3

_symmetry_cell_setting          triclinic
_symmetry_space_group_name_Hall 'P 1'
_symmetry_space_group_name_H-M  'P 1'
_symmetry_Int_Tables_number     1

_symmetry_equiv_pos_as_xyz 'x,y,z'

loop_
_atom_site_label
_atom_site_type_symbol
_atom_site_fract_x
_atom_site_fract_y
_atom_site_fract_z
_atom_site_charge
C1       C      0.614020000000     0.411230000000     0.147890000000     0.405489   
C2       C      0.599640000000     0.493570000000     0.195180000000     0.404497   
C3       C      0.700200000000     0.514300000000     0.139130000000     0.405728   
C4       C      0.590740000000     0.498240000000     0.109050000000     0.405451   
C5       C      0.394660000000     0.529750000000     0.407700000000     0.403237   
C6       C      0.493250000000     0.553140000000     0.346930000000     0.402283   
C7       C      0.476990000000     0.633080000000     0.393570000000     0.405447   
C8       C      0.505590000000     0.548480000000     0.433110000000     0.408238   
C9       C      0.871870000000     0.343450000000     0.139000000000     0.407418   
C10      C      0.973660000000     0.443290000000     0.102800000000     0.409116   
C11      C      0.869180000000     0.437150000000     0.139480000000     0.40457    
C12      C      0.959730000000     0.434300000000     0.191480000000     0.401667   
C13      C      0.173400000000     0.481410000000     0.418820000000     0.405143   
C14      C      0.090850000000     0.510950000000     0.424430000000     0.408284   
C15      C      0.219140000000     0.591770000000     0.405580000000     0.408519   
C16      C      0.138040000000     0.529950000000     0.341780000000     0.404487   
C17      C      0.619270000000     0.189790000000     0.151410000000     0.406803   
C18      C      0.527830000000     0.074680000000     0.182720000000     0.408567   
C19      C      0.515170000000     0.170000000000     0.162300000000     0.405133   
C20      C      0.539010000000     0.103420000000     0.096090000000     0.402566   
C21      C      0.488340000000     0.855960000000     0.393680000000     0.404812   
C22      C      0.474120000000     0.950580000000     0.360530000000     0.41161    
C23      C      0.383460000000     0.838460000000     0.386670000000     0.404034   
C24      C      0.464640000000     0.924770000000     0.448670000000     0.399502   
C25      C      0.542720000000     0.034550000000     0.210870000000     0.0150121  
C26      C      0.458720000000     0.989380000000     0.331080000000     0.0151076  
C27      C      0.523570000000     0.002960000000     0.334760000000     0.0150813  
C28      C      0.459050000000     0.988660000000     0.298140000000    -0.100616   
C29      C      0.542280000000     0.034560000000     0.243830000000    -0.100394   
C30      C      0.527680000000     0.002990000000     0.302030000000    -0.100564   
C31      C      0.503550000000     0.017400000000     0.256870000000     0.0177486  
C32      C      0.497790000000     0.005990000000     0.285120000000     0.0177351  
C33      C      0.478030000000     0.021360000000     0.207320000000     0.0152897  
C34      C      0.473650000000     0.020490000000     0.240050000000    -0.100597   
C35      C      0.503490000000     0.948400000000     0.492480000000     0.0145903  
C36      C      0.501340000000     0.081020000000     0.051600000000     0.0146041  
C37      C      0.562790000000     0.085690000000     0.054250000000     0.0149523  
C38      C      0.482260000000     0.041700000000     0.041940000000    -0.100607   
C39      C      0.522420000000     0.987790000000     0.501970000000    -0.100687   
C40      C      0.547310000000     0.046730000000     0.044410000000    -0.100755   
C41      C      0.495910000000     0.999640000000     0.513390000000     0.017486   
C42      C      0.508730000000     0.029650000000     0.030760000000     0.0174934  
C43      C      0.441730000000     0.943190000000     0.490640000000     0.0142107  
C44      C      0.457200000000     0.982330000000     0.499950000000    -0.100638   
C45      C      0.339060000000     0.787310000000     0.356470000000     0.014647   
C46      C      0.258340000000     0.646610000000     0.434430000000     0.0151344  
C47      C      0.281630000000     0.636270000000     0.388590000000     0.0151468  
C48      C      0.264950000000     0.683410000000     0.424650000000    -0.10062    
C49      C      0.331190000000     0.749800000000     0.365230000000    -0.0997446  
C50      C      0.288590000000     0.671900000000     0.375770000000    -0.100593   
C51      C      0.307300000000     0.734910000000     0.392240000000     0.0167508  
C52      C      0.289940000000     0.698650000000     0.398260000000     0.0175961  
C53      C      0.319520000000     0.798740000000     0.403520000000     0.0147306  
C54      C      0.309480000000     0.761630000000     0.415170000000    -0.0998551  
C55      C      0.834790000000     0.284260000000     0.162550000000     0.0149694  
C56      C      0.671020000000     0.242320000000     0.127760000000     0.0155835  
C57      C      0.676390000000     0.229150000000     0.179100000000     0.0149428  
C58      C      0.706590000000     0.242780000000     0.119710000000    -0.101237   
C59      C      0.794480000000     0.272770000000     0.169020000000    -0.0997471  
C60      C      0.713150000000     0.230470000000     0.173830000000    -0.101114   
C61      C      0.769570000000     0.265170000000     0.142450000000     0.0166886  
C62      C      0.731880000000     0.249190000000     0.145680000000     0.0180887  
C63      C      0.827300000000     0.290610000000     0.110570000000     0.0157277  
C64      C      0.787270000000     0.281750000000     0.113430000000    -0.0997539  
C65      C      0.134220000000     0.508120000000     0.291860000000     0.0153433  
C66      C      0.979890000000     0.470670000000     0.236160000000     0.0136854  
C67      C      0.995970000000     0.422930000000     0.227960000000     0.0136465  
C68      C      0.019730000000     0.498360000000     0.244230000000    -0.100381   
C69      C      0.096670000000     0.482100000000     0.278460000000    -0.100345   
C70      C      0.036630000000     0.448500000000     0.235370000000    -0.100359   
C71      C      0.073080000000     0.499100000000     0.270960000000     0.0175639  
C72      C      0.043080000000     0.481480000000     0.252720000000     0.0176338  
C73      C      0.116870000000     0.554150000000     0.302250000000     0.0149699  
C74      C      0.078520000000     0.531610000000     0.288590000000    -0.10023    
C75      C      0.030650000000     0.463860000000     0.443130000000     0.0158664  
C76      C      0.021990000000     0.495650000000     0.076090000000     0.0145025  
C77      C      0.011650000000     0.434380000000     0.066790000000     0.0161358  
C78      C      0.018600000000     0.501970000000     0.043980000000    -0.0998225  
C79      C      0.030180000000     0.454940000000     0.475000000000    -0.100105   
C80      C      0.005090000000     0.436390000000     0.034640000000    -0.100176   
C81      C      0.030850000000     0.483340000000     0.495360000000     0.0176189  
C82      C      0.021190000000     0.475030000000     0.023840000000     0.0175642  
C83      C      0.051550000000     0.527860000000     0.452480000000     0.0150627  
C84      C      0.049460000000     0.522610000000     0.485250000000    -0.10013    
C85      C      0.491720000000     0.689510000000     0.418650000000     0.0138057  
C86      C      0.518920000000     0.829640000000     0.365200000000     0.0136188  
C87      C      0.514660000000     0.822990000000     0.418690000000     0.0143366  
C88      C      0.502800000000     0.789000000000     0.361110000000    -0.101186   
C89      C      0.523170000000     0.727280000000     0.411860000000    -0.102653   
C90      C      0.496990000000     0.782210000000     0.416350000000    -0.101273   
C91      C      0.512250000000     0.742160000000     0.386430000000     0.0193568  
C92      C      0.507070000000     0.771170000000     0.388110000000     0.0179531  
C93      C      0.473330000000     0.680470000000     0.365940000000     0.0127505  
C94      C      0.503850000000     0.719210000000     0.359480000000    -0.102738   
C95      C      0.183180000000     0.429860000000     0.411090000000     0.015949   
C96      C      0.344060000000     0.516630000000     0.441490000000     0.0129542  
C97      C      0.330450000000     0.490420000000     0.390980000000     0.0125802  
C98      C      0.313640000000     0.480580000000     0.453170000000    -0.102342   
C99      C      0.223130000000     0.439760000000     0.405560000000    -0.0998922  
C100     C      0.300370000000     0.454410000000     0.403010000000    -0.102178   
C101     C      0.249010000000     0.455340000000     0.431660000000     0.0180682  
C102     C      0.284410000000     0.461240000000     0.430010000000     0.0190174  
C103     C      0.197220000000     0.459920000000     0.458450000000     0.0153326  
C104     C      0.237990000000     0.470350000000     0.457330000000    -0.0996129  
C105     C      0.826230000000     0.451630000000     0.164370000000     0.0144661  
C106     C      0.754180000000     0.534360000000     0.107070000000     0.014633   
C107     C      0.763410000000     0.544520000000     0.159450000000     0.016069   
C108     C      0.773550000000     0.512010000000     0.106460000000    -0.0995305  
C109     C      0.827670000000     0.487870000000     0.163910000000    -0.101771   
C110     C      0.779790000000     0.520060000000     0.163180000000    -0.0997966  
C111     C      0.812130000000     0.493390000000     0.135760000000     0.0183329  
C112     C      0.791170000000     0.509910000000     0.134970000000     0.0168896  
C113     C      0.826920000000     0.449500000000     0.110560000000     0.0140293  
C114     C      0.826550000000     0.484910000000     0.108410000000    -0.101679   
C115     C      0.506690000000     0.209840000000     0.195840000000     0.0152724  
C116     C      0.592950000000     0.353160000000     0.122930000000     0.0148492  
C117     C      0.614060000000     0.360950000000     0.173920000000     0.0153497  
C118     C      0.555780000000     0.320070000000     0.130170000000    -0.10114    
C119     C      0.536380000000     0.249340000000     0.191720000000    -0.099276   
C120     C      0.578020000000     0.328040000000     0.183530000000    -0.101383   
C121     C      0.534360000000     0.266070000000     0.162990000000     0.0165211  
C122     C      0.556750000000     0.302480000000     0.158600000000     0.0182235  
C123     C      0.484210000000     0.202930000000     0.145930000000     0.0157266  
C124     C      0.512620000000     0.241490000000     0.137600000000    -0.0993384  
C125     C      0.585130000000     0.545700000000     0.083260000000     0.0151583  
C126     C      0.513150000000     0.501690000000     0.458070000000     0.0153673  
C127     C      0.562420000000     0.565730000000     0.461360000000     0.0152101  
C128     C      0.511340000000     0.497020000000     0.490750000000    -0.100665   
C129     C      0.586870000000     0.550150000000     0.050520000000    -0.100826   
C130     C      0.563780000000     0.564600000000     0.494250000000    -0.100693   
C131     C      0.553090000000     0.520780000000     0.034470000000     0.0180548  
C132     C      0.544900000000     0.526570000000     0.506880000000     0.0178427  
C133     C      0.534730000000     0.482080000000     0.080090000000     0.0152687  
C134     C      0.533940000000     0.482830000000     0.047200000000    -0.100766   
C135     C      0.487130000000     0.509270000000     0.310180000000     0.0128161  
C136     C      0.604860000000     0.538290000000     0.230780000000     0.0130166  
C137     C      0.547070000000     0.475460000000     0.227720000000     0.0131423  
C138     C      0.598080000000     0.538300000000     0.263120000000    -0.103352   
C139     C      0.493970000000     0.509740000000     0.277800000000    -0.103381   
C140     C      0.542100000000     0.477570000000     0.260150000000    -0.103446   
C141     C      0.535100000000     0.531490000000     0.272740000000     0.0217007  
C142     C      0.556950000000     0.516540000000     0.268240000000     0.0215842  
C143     C      0.545210000000     0.571970000000     0.313670000000     0.0133095  
C144     C      0.549960000000     0.570340000000     0.281170000000    -0.103613   
C145     C      0.614020000000     0.411230000000     0.647890000000     0.405393   
C146     C      0.599640000000     0.493570000000     0.695190000000     0.404517   
C147     C      0.700200000000     0.514300000000     0.639130000000     0.40573    
C148     C      0.590730000000     0.498240000000     0.609050000000     0.405414   
C149     C      0.394660000000     0.529750000000     0.907700000000     0.403237   
C150     C      0.493250000000     0.553140000000     0.846930000000     0.402114   
C151     C      0.476990000000     0.633080000000     0.893570000000     0.40544    
C152     C      0.505590000000     0.548480000000     0.933110000000     0.408131   
C153     C      0.871870000000     0.343450000000     0.639000000000     0.407233   
C154     C      0.973660000000     0.443290000000     0.602800000000     0.409124   
C155     C      0.869180000000     0.437150000000     0.639480000000     0.404521   
C156     C      0.959730000000     0.434290000000     0.691480000000     0.401672   
C157     C      0.173400000000     0.481420000000     0.918820000000     0.405182   
C158     C      0.090850000000     0.510950000000     0.924430000000     0.40832    
C159     C      0.219140000000     0.591770000000     0.905580000000     0.408565   
C160     C      0.138040000000     0.529950000000     0.841780000000     0.404508   
C161     C      0.619270000000     0.189790000000     0.651410000000     0.40683    
C162     C      0.527830000000     0.074680000000     0.682720000000     0.408246   
C163     C      0.515170000000     0.170000000000     0.662300000000     0.40513    
C164     C      0.539010000000     0.103420000000     0.596090000000     0.402568   
C165     C      0.488340000000     0.855960000000     0.893680000000     0.40482    
C166     C      0.474120000000     0.950580000000     0.860530000000     0.411762   
C167     C      0.383460000000     0.838460000000     0.886670000000     0.404039   
C168     C      0.464640000000     0.924760000000     0.948670000000     0.399211   
C169     C      0.542720000000     0.034550000000     0.710870000000     0.01501    
C170     C      0.458720000000     0.989380000000     0.831080000000     0.0151597  
C171     C      0.523570000000     0.002960000000     0.834760000000     0.0150843  
C172     C      0.459050000000     0.988650000000     0.798140000000    -0.100637   
C173     C      0.542280000000     0.034560000000     0.743830000000    -0.100432   
C174     C      0.527680000000     0.002990000000     0.802030000000    -0.100639   
C175     C      0.503550000000     0.017400000000     0.756870000000     0.0177187  
C176     C      0.497790000000     0.005990000000     0.785120000000     0.0177622  
C177     C      0.478030000000     0.021360000000     0.707320000000     0.0153023  
C178     C      0.473650000000     0.020490000000     0.740040000000    -0.100554   
C179     C      0.503490000000     0.948400000000     0.992480000000     0.0147626  
C180     C      0.501340000000     0.081020000000     0.551600000000     0.0146018  
C181     C      0.562790000000     0.085690000000     0.554250000000     0.0149577  
C182     C      0.482260000000     0.041700000000     0.541940000000    -0.100598   
C183     C      0.522420000000     0.987790000000     0.001960000000    -0.100834   
C184     C      0.547310000000     0.046730000000     0.544410000000    -0.10075    
C185     C      0.495910000000     0.999650000000     0.013390000000     0.0174008  
C186     C      0.508730000000     0.029650000000     0.530760000000     0.0174786  
C187     C      0.441730000000     0.943190000000     0.990640000000     0.0142496  
C188     C      0.457200000000     0.982330000000     0.999950000000    -0.100485   
C189     C      0.339060000000     0.787310000000     0.856470000000     0.0146365  
C190     C      0.258330000000     0.646610000000     0.934430000000     0.0151721  
C191     C      0.281630000000     0.636270000000     0.888590000000     0.0151067  
C192     C      0.264940000000     0.683410000000     0.924650000000    -0.100684   
C193     C      0.331190000000     0.749800000000     0.865230000000    -0.0997139  
C194     C      0.288590000000     0.671900000000     0.875770000000    -0.100578   
C195     C      0.307300000000     0.734910000000     0.892240000000     0.016757   
C196     C      0.289940000000     0.698650000000     0.898260000000     0.0175987  
C197     C      0.319520000000     0.798740000000     0.903520000000     0.0147459  
C198     C      0.309480000000     0.761630000000     0.915170000000    -0.0999034  
C199     C      0.834790000000     0.284260000000     0.662550000000     0.0149446  
C200     C      0.671020000000     0.242320000000     0.627760000000     0.0155857  
C201     C      0.676390000000     0.229150000000     0.679100000000     0.0149425  
C202     C      0.706590000000     0.242780000000     0.619710000000    -0.10124    
C203     C      0.794480000000     0.272770000000     0.669020000000    -0.0997404  
C204     C      0.713150000000     0.230470000000     0.673830000000    -0.101117   
C205     C      0.769570000000     0.265170000000     0.642450000000     0.0166853  
C206     C      0.731880000000     0.249190000000     0.645680000000     0.0180921  
C207     C      0.827300000000     0.290610000000     0.610570000000     0.0157058  
C208     C      0.787270000000     0.281750000000     0.613430000000    -0.099748   
C209     C      0.134220000000     0.508120000000     0.791860000000     0.0153673  
C210     C      0.979890000000     0.470670000000     0.736160000000     0.0137007  
C211     C      0.995970000000     0.422930000000     0.727960000000     0.0136396  
C212     C      0.019730000000     0.498360000000     0.744230000000    -0.100391   
C213     C      0.096670000000     0.482090000000     0.778460000000    -0.100342   
C214     C      0.036630000000     0.448500000000     0.735370000000    -0.100362   
C215     C      0.073080000000     0.499090000000     0.770960000000     0.0175314  
C216     C      0.043080000000     0.481480000000     0.752720000000     0.0176519  
C217     C      0.116870000000     0.554150000000     0.802250000000     0.0149251  
C218     C      0.078520000000     0.531620000000     0.788590000000    -0.100258   
C219     C      0.030650000000     0.463860000000     0.943130000000     0.0159464  
C220     C      0.021990000000     0.495650000000     0.576090000000     0.0144908  
C221     C      0.011650000000     0.434380000000     0.566790000000     0.0161468  
C222     C      0.018600000000     0.501960000000     0.543980000000    -0.0997707  
C223     C      0.030180000000     0.454940000000     0.975000000000    -0.100158   
C224     C      0.005090000000     0.436390000000     0.534640000000    -0.100209   
C225     C      0.030850000000     0.483340000000     0.995360000000     0.0177276  
C226     C      0.021190000000     0.475030000000     0.523840000000     0.0176695  
C227     C      0.051550000000     0.527860000000     0.952480000000     0.0149818  
C228     C      0.049450000000     0.522600000000     0.985250000000    -0.100049   
C229     C      0.491720000000     0.689510000000     0.918650000000     0.0138026  
C230     C      0.518920000000     0.829640000000     0.865200000000     0.013622   
C231     C      0.514660000000     0.822990000000     0.918690000000     0.0143357  
C232     C      0.502800000000     0.789000000000     0.861110000000    -0.101185   
C233     C      0.523170000000     0.727280000000     0.911860000000    -0.102639   
C234     C      0.496990000000     0.782210000000     0.916350000000    -0.101271   
C235     C      0.512250000000     0.742150000000     0.886430000000     0.0193804  
C236     C      0.507070000000     0.771170000000     0.888110000000     0.017945   
C237     C      0.473330000000     0.680470000000     0.865940000000     0.0127448  
C238     C      0.503850000000     0.719210000000     0.859480000000    -0.102723   
C239     C      0.183180000000     0.429860000000     0.911090000000     0.0158969  
C240     C      0.344060000000     0.516620000000     0.941490000000     0.0130503  
C241     C      0.330460000000     0.490430000000     0.890980000000     0.0125816  
C242     C      0.313640000000     0.480580000000     0.953170000000    -0.10239    
C243     C      0.223130000000     0.439760000000     0.905560000000    -0.0998735  
C244     C      0.300370000000     0.454410000000     0.903010000000    -0.102155   
C245     C      0.249010000000     0.455330000000     0.931660000000     0.0180571  
C246     C      0.284410000000     0.461240000000     0.930010000000     0.0190272  
C247     C      0.197220000000     0.459920000000     0.958440000000     0.0154736  
C248     C      0.237990000000     0.470350000000     0.957330000000    -0.0996622  
C249     C      0.826230000000     0.451630000000     0.664370000000     0.0144455  
C250     C      0.754180000000     0.534360000000     0.607070000000     0.0146602  
C251     C      0.763410000000     0.544520000000     0.659450000000     0.0160484  
C252     C      0.773550000000     0.512010000000     0.606460000000    -0.0995444  
C253     C      0.827670000000     0.487870000000     0.663910000000    -0.101761   
C254     C      0.779790000000     0.520060000000     0.663180000000    -0.0997936  
C255     C      0.812130000000     0.493390000000     0.635760000000     0.0183114  
C256     C      0.791170000000     0.509910000000     0.634970000000     0.0168987  
C257     C      0.826920000000     0.449500000000     0.610560000000     0.0140465  
C258     C      0.826560000000     0.484910000000     0.608410000000    -0.101677   
C259     C      0.506690000000     0.209840000000     0.695840000000     0.0152948  
C260     C      0.592950000000     0.353150000000     0.622930000000     0.0148477  
C261     C      0.614060000000     0.360950000000     0.673930000000     0.0152201  
C262     C      0.555780000000     0.320070000000     0.630160000000    -0.101189   
C263     C      0.536380000000     0.249340000000     0.691730000000    -0.0993208  
C264     C      0.578010000000     0.328040000000     0.683530000000    -0.101304   
C265     C      0.534360000000     0.266070000000     0.662990000000     0.0165257  
C266     C      0.556750000000     0.302480000000     0.658600000000     0.0182007  
C267     C      0.484210000000     0.202930000000     0.645930000000     0.0157034  
C268     C      0.512630000000     0.241490000000     0.637600000000    -0.0993284  
C269     C      0.585130000000     0.545700000000     0.583250000000     0.0152147  
C270     C      0.513150000000     0.501690000000     0.958080000000     0.0153814  
C271     C      0.562420000000     0.565730000000     0.961360000000     0.015105   
C272     C      0.511340000000     0.497020000000     0.990750000000    -0.100642   
C273     C      0.586870000000     0.550150000000     0.550520000000    -0.100795   
C274     C      0.563770000000     0.564590000000     0.994250000000    -0.10042    
C275     C      0.553090000000     0.520780000000     0.534470000000     0.0180259  
C276     C      0.544900000000     0.526570000000     0.006880000000     0.0176952  
C277     C      0.534730000000     0.482070000000     0.580090000000     0.0152574  
C278     C      0.533940000000     0.482830000000     0.547200000000    -0.100799   
C279     C      0.487120000000     0.509260000000     0.810170000000     0.0127142  
C280     C      0.604860000000     0.538290000000     0.730780000000     0.0130447  
C281     C      0.547070000000     0.475460000000     0.727720000000     0.0131935  
C282     C      0.598080000000     0.538300000000     0.763120000000    -0.103479   
C283     C      0.493970000000     0.509740000000     0.777800000000    -0.103326   
C284     C      0.542100000000     0.477570000000     0.760150000000    -0.103532   
C285     C      0.535100000000     0.531490000000     0.772740000000     0.0216598  
C286     C      0.556950000000     0.516540000000     0.768240000000     0.0216468  
C287     C      0.545210000000     0.571970000000     0.813670000000     0.0133062  
C288     C      0.549950000000     0.570340000000     0.781170000000    -0.103599   
H1       H      0.556790000000     0.020040000000     0.250520000000     0.0442293  
H2       H      0.467210000000     0.017230000000     0.338140000000     0.0265388  
H3       H      0.469130000000     0.993590000000     0.199760000000     0.0263527  
H4       H      0.445790000000     0.997260000000     0.244350000000     0.0442653  
H5       H      0.444140000000     0.002660000000     0.291150000000     0.0442775  
H6       H      0.555620000000     0.025930000000     0.297420000000     0.0442774  
H7       H      0.571410000000     0.052510000000     0.203330000000     0.0398677  
H8       H      0.430080000000     0.971440000000     0.338740000000     0.0388792  
H9       H      0.474150000000     0.045470000000     0.247040000000     0.0530302  
H10      H      0.526840000000     0.977710000000     0.295450000000     0.0529268  
H11      H      0.459350000000     0.029670000000     0.197170000000     0.0389868  
H12      H      0.532480000000     0.030900000000     0.341840000000     0.0265304  
H13      H      0.558510000000     0.062790000000     0.251650000000     0.0530747  
H14      H      0.443150000000     0.960250000000     0.290690000000     0.0526505  
H15      H      0.542360000000     0.994930000000     0.345110000000     0.0393545  
H16      H      0.534040000000     0.006810000000     0.203370000000     0.026576   
H17      H      0.542830000000     0.990610000000     0.518610000000     0.0440882  
H18      H      0.509880000000     0.098290000000     0.032070000000     0.0280509  
H19      H      0.433170000000     0.926080000000     0.510260000000     0.0283352  
H20      H      0.436760000000     0.981830000000     0.515330000000     0.0443188  
H21      H      0.462180000000     0.039130000000     0.025070000000     0.044281   
H22      H      0.567880000000     0.047510000000     0.029010000000     0.0439687  
H23      H      0.523510000000     0.943680000000     0.480360000000     0.0413973  
H24      H      0.481220000000     0.085890000000     0.063410000000     0.0419747  
H25      H      0.458240000000     0.998450000000     0.480890000000     0.051638   
H26      H      0.546080000000     0.030220000000     0.063250000000     0.0516363  
H27      H      0.416640000000     0.934680000000     0.477160000000     0.041688   
H28      H      0.572000000000     0.103250000000     0.034880000000     0.0276717  
H29      H      0.537600000000     0.005140000000     0.483380000000     0.0519238  
H30      H      0.466700000000     0.024270000000     0.060380000000     0.0521514  
H31      H      0.587500000000     0.093750000000     0.068090000000     0.0399756  
H32      H      0.495560000000     0.931300000000     0.512100000000     0.028014   
H33      H      0.317560000000     0.732200000000     0.346290000000     0.0438406  
H34      H      0.283570000000     0.650660000000     0.445880000000     0.0268637  
H35      H      0.294520000000     0.796680000000     0.393100000000     0.0273321  
H36      H      0.282560000000     0.751450000000     0.426140000000     0.0443013  
H37      H      0.276890000000     0.701340000000     0.443660000000     0.0442119  
H38      H      0.315050000000     0.682890000000     0.363980000000     0.0437831  
H39      H      0.361180000000     0.798480000000     0.339980000000     0.0393772  
H40      H      0.235200000000     0.634820000000     0.450050000000     0.0404323  
H41      H      0.330490000000     0.764970000000     0.431510000000     0.0521634  
H42      H      0.266290000000     0.666400000000     0.359990000000     0.0525381  
H43      H      0.327470000000     0.818130000000     0.421700000000     0.0410681  
H44      H      0.307270000000     0.641030000000     0.399810000000     0.0266969  
H45      H      0.357900000000     0.750800000000     0.369240000000     0.0509051  
H46      H      0.237890000000     0.681100000000     0.419430000000     0.0530362  
H47      H      0.275860000000     0.616670000000     0.370910000000     0.0390287  
H48      H      0.313620000000     0.784740000000     0.346460000000     0.0272573  
H49      H      0.783830000000     0.248410000000     0.182700000000     0.0441718  
H50      H      0.678060000000     0.270200000000     0.133530000000     0.0260625  
H51      H      0.827480000000     0.265080000000     0.106960000000     0.0269321  
H52      H      0.771820000000     0.263010000000     0.095470000000     0.0442115  
H53      H      0.719870000000     0.264070000000     0.103180000000     0.0441209  
H54      H      0.730480000000     0.244110000000     0.193000000000     0.0441401  
H55      H      0.852220000000     0.297520000000     0.181860000000     0.0399864  
H56      H      0.652330000000     0.233890000000     0.108690000000     0.0394168  
H57      H      0.786280000000     0.306930000000     0.110450000000     0.052076   
H58      H      0.708210000000     0.202540000000     0.173180000000     0.0533703  
H59      H      0.839960000000     0.308000000000     0.091440000000     0.0398239  
H60      H      0.682450000000     0.256470000000     0.185740000000     0.0263411  
H61      H      0.794090000000     0.294480000000     0.181770000000     0.0515309  
H62      H      0.699530000000     0.216600000000     0.109670000000     0.0539224  
H63      H      0.661870000000     0.210540000000     0.197230000000     0.040182   
H64      H      0.836430000000     0.259660000000     0.158030000000     0.0270453  
H65      H      0.102750000000     0.471200000000     0.258880000000     0.0443839  
H66      H      0.964810000000     0.457450000000     0.256250000000     0.0284729  
H67      H      0.136180000000     0.571840000000     0.285340000000     0.0266387  
H68      H      0.074460000000     0.550540000000     0.274880000000     0.0439258  
H69      H      0.017460000000     0.514400000000     0.261960000000     0.0441577  
H70      H      0.045690000000     0.431840000000     0.247240000000     0.0444851  
H71      H      0.146580000000     0.492600000000     0.301020000000     0.0418216  
H72      H      0.966340000000     0.484860000000     0.226560000000     0.0415326  
H73      H      0.057580000000     0.521720000000     0.305990000000     0.0518345  
H74      H      0.052720000000     0.457870000000     0.215120000000     0.051697   
H75      H      0.115750000000     0.571840000000     0.319200000000     0.0388856  
H76      H      0.981470000000     0.408660000000     0.247930000000     0.0291033  
H77      H      0.080970000000     0.459620000000     0.293720000000     0.0533453  
H78      H      0.033050000000     0.516520000000     0.225630000000     0.052187   
H79      H      0.994020000000     0.402360000000     0.212410000000     0.0409915  
H80      H      0.152790000000     0.525540000000     0.274490000000     0.0271638  
H81      H      0.004770000000     0.428470000000     0.478150000000     0.0445467  
H82      H      0.051650000000     0.505940000000     0.081150000000     0.0266925  
H83      H      0.024480000000     0.523720000000     0.444730000000     0.0266658  
H84      H      0.034420000000     0.535930000000     0.493450000000     0.0441999  
H85      H      0.040750000000     0.529990000000     0.039760000000     0.0439528  
H86      H      0.017650000000     0.422150000000     0.023780000000     0.0445572  
H87      H      0.035490000000     0.444990000000     0.430000000000     0.0388287  
H88      H      0.012920000000     0.511530000000     0.089080000000     0.0389958  
H89      H      0.078010000000     0.537000000000     0.494170000000     0.0528128  
H90      H      0.974900000000     0.421490000000     0.030170000000     0.0531726  
H91      H      0.072850000000     0.556000000000     0.447290000000     0.0402485  
H92      H      0.041590000000     0.444410000000     0.070330000000     0.0270683  
H93      H      0.054590000000     0.452010000000     0.479810000000     0.0532768  
H94      H      0.991570000000     0.500320000000     0.040100000000     0.0519501  
H95      H      0.996220000000     0.405810000000     0.073760000000     0.0397828  
H96      H      0.003030000000     0.459780000000     0.437120000000     0.0265631  
H97      H      0.532090000000     0.744380000000     0.431350000000     0.0447859  
H98      H      0.549560000000     0.842730000000     0.365700000000     0.0286287  
H99      H      0.446900000000     0.680340000000     0.368840000000     0.0280121  
H100     H      0.494250000000     0.728560000000     0.340910000000     0.0442763  
H101     H      0.517820000000     0.786110000000     0.342620000000     0.0442399  
H102     H      0.504370000000     0.772770000000     0.436010000000     0.0446805  
H103     H      0.500430000000     0.678410000000     0.436720000000     0.0416181  
H104     H      0.511180000000     0.840450000000     0.346340000000     0.0408822  
H105     H      0.529260000000     0.719140000000     0.352740000000     0.0522635  
H106     H      0.466480000000     0.770090000000     0.416740000000     0.0530021  
H107     H      0.469920000000     0.663330000000     0.346930000000     0.0405664  
H108     H      0.545070000000     0.834830000000     0.420790000000     0.028306   
H109     H      0.547700000000     0.725290000000     0.405620000000     0.054059   
H110     H      0.473010000000     0.776200000000     0.355430000000     0.0513662  
H111     H      0.504750000000     0.829800000000     0.438570000000     0.0410273  
H112     H      0.467460000000     0.691350000000     0.425960000000     0.0279996  
H113     H      0.222220000000     0.414770000000     0.398080000000     0.0443445  
H114     H      0.332420000000     0.534660000000     0.438370000000     0.0286732  
H115     H      0.181500000000     0.433150000000     0.468960000000     0.0259934  
H116     H      0.243960000000     0.460850000000     0.477810000000     0.0436913  
H117     H      0.303330000000     0.485530000000     0.473530000000     0.043989   
H118     H      0.280120000000     0.439670000000     0.385670000000     0.0446723  
H119     H      0.168630000000     0.426430000000     0.390210000000     0.041353   
H120     H      0.366420000000     0.529320000000     0.457920000000     0.0404402  
H121     H      0.254920000000     0.500210000000     0.456740000000     0.0519612  
H122     H      0.312950000000     0.437760000000     0.408780000000     0.0526463  
H123     H      0.194140000000     0.479540000000     0.472040000000     0.0385457  
H124     H      0.317280000000     0.505760000000     0.383000000000     0.0302956  
H125     H      0.234120000000     0.459910000000     0.387920000000     0.0539219  
H126     H      0.325990000000     0.463730000000     0.458900000000     0.0524462  
H127     H      0.343400000000     0.485010000000     0.372250000000     0.042584   
H128     H      0.169050000000     0.403560000000     0.422460000000     0.0265627  
H129     H      0.812390000000     0.488100000000     0.183220000000     0.0445203  
H130     H      0.775260000000     0.563010000000     0.103210000000     0.0267725  
H131     H      0.797920000000     0.426910000000     0.109160000000     0.0268062  
H132     H      0.810040000000     0.482370000000     0.088940000000     0.0438904  
H133     H      0.794930000000     0.524080000000     0.089480000000     0.043709   
H134     H      0.804110000000     0.534630000000     0.177680000000     0.0443011  
H135     H      0.840160000000     0.450010000000     0.184300000000     0.0412126  
H136     H      0.733640000000     0.525680000000     0.089220000000     0.0392382  
H137     H      0.855160000000     0.507250000000     0.104650000000     0.0525741  
H138     H      0.759000000000     0.494940000000     0.173980000000     0.0531429  
H139     H      0.841980000000     0.447210000000     0.091780000000     0.0396256  
H140     H      0.786270000000     0.572230000000     0.154810000000     0.0267861  
H141     H      0.856790000000     0.509880000000     0.166350000000     0.0533635  
H142     H      0.752900000000     0.484130000000     0.099800000000     0.0507738  
H143     H      0.750220000000     0.545550000000     0.179870000000     0.0406159  
H144     H      0.796800000000     0.429890000000     0.165310000000     0.0273703  
H145     H      0.533640000000     0.264440000000     0.210050000000     0.0440019  
H146     H      0.612560000000     0.343930000000     0.116890000000     0.0269027  
H147     H      0.459210000000     0.202690000000     0.154280000000     0.026582   
H148     H      0.497240000000     0.252530000000     0.125930000000     0.044416   
H149     H      0.548720000000     0.301710000000     0.111450000000     0.0445786  
H150     H      0.585990000000     0.315080000000     0.200520000000     0.0441743  
H151     H      0.515430000000     0.197650000000     0.213070000000     0.0387921  
H152     H      0.589460000000     0.366950000000     0.103940000000     0.0406312  
H153     H      0.532630000000     0.240460000000     0.122540000000     0.0533934  
H154     H      0.560020000000     0.337180000000     0.193460000000     0.0539707  
H155     H      0.475790000000     0.185290000000     0.126560000000     0.0406434  
H156     H      0.634130000000     0.352020000000     0.168620000000     0.0261543  
H157     H      0.563860000000     0.251300000000     0.193220000000     0.0518384  
H158     H      0.534450000000     0.328150000000     0.131760000000     0.053913   
H159     H      0.625850000000     0.380390000000     0.192100000000     0.0392431  
H160     H      0.480830000000     0.208760000000     0.203040000000     0.0263948  
H161     H      0.590320000000     0.577160000000     0.546730000000     0.0442473  
H162     H      0.533300000000     0.494330000000     0.449560000000     0.026414   
H163     H      0.514570000000     0.489560000000     0.088350000000     0.0265768  
H164     H      0.504250000000     0.467550000000     0.041200000000     0.0440941  
H165     H      0.508320000000     0.470160000000     0.994430000000     0.044097   
H166     H      0.593560000000     0.579840000000     0.499980000000     0.0442642  
H167     H      0.612820000000     0.564230000000     0.092640000000     0.0398289  
H168     H      0.485690000000     0.482680000000     0.448570000000     0.0390584  
H169     H      0.547580000000     0.468270000000     0.038650000000     0.0532329  
H170     H      0.550280000000     0.579060000000     0.503270000000     0.0529274  
H171     H      0.525490000000     0.454170000000     0.087310000000     0.0404775  
H172     H      0.582970000000     0.559050000000     0.452630000000     0.0267103  
H173     H      0.611840000000     0.550150000000     0.042500000000     0.053045   
H174     H      0.486150000000     0.496600000000     0.498780000000     0.0526342  
H175     H      0.570830000000     0.593560000000     0.454450000000     0.0403571  
H176     H      0.565630000000     0.553890000000     0.091770000000     0.0265786  
H177     H      0.480050000000     0.482140000000     0.268980000000     0.0449019  
H178     H      0.594930000000     0.554850000000     0.219710000000     0.0300585  
H179     H      0.564860000000     0.565810000000     0.325000000000     0.0297433  
H180     H      0.578780000000     0.589060000000     0.274890000000     0.0448466  
H181     H      0.611980000000     0.566060000000     0.271620000000     0.0449152  
H182     H      0.513220000000     0.458970000000     0.266360000000     0.0447625  
H183     H      0.456850000000     0.496320000000     0.313680000000     0.0418475  
H184     H      0.635160000000     0.551540000000     0.227240000000     0.0415149  
H185     H      0.533550000000     0.580670000000     0.270040000000     0.0519924  
H186     H      0.558400000000     0.467360000000     0.271620000000     0.0519069  
H187     H      0.552910000000     0.600000000000     0.319510000000     0.0402506  
H188     H      0.527540000000     0.481540000000     0.216090000000     0.0294191  
H189     H      0.480320000000     0.523010000000     0.266760000000     0.0520691  
H190     H      0.611800000000     0.525260000000     0.274400000000     0.0521293  
H191     H      0.539340000000     0.447340000000     0.222210000000     0.040072   
H192     H      0.496630000000     0.492190000000     0.320950000000     0.0300207  
H193     H      0.556780000000     0.020040000000     0.750520000000     0.0442616  
H194     H      0.467210000000     0.017230000000     0.838150000000     0.0265327  
H195     H      0.469130000000     0.993590000000     0.699760000000     0.0263538  
H196     H      0.445790000000     0.997260000000     0.744350000000     0.04425    
H197     H      0.444140000000     0.002660000000     0.791150000000     0.0442609  
H198     H      0.555620000000     0.025930000000     0.797420000000     0.0442953  
H199     H      0.571410000000     0.052510000000     0.703330000000     0.0398744  
H200     H      0.430080000000     0.971440000000     0.838740000000     0.0388639  
H201     H      0.474150000000     0.045470000000     0.747040000000     0.0530137  
H202     H      0.526840000000     0.977720000000     0.795450000000     0.0529643  
H203     H      0.459350000000     0.029670000000     0.697170000000     0.038991   
H204     H      0.532480000000     0.030900000000     0.841840000000     0.0265386  
H205     H      0.558510000000     0.062790000000     0.751650000000     0.0530862  
H206     H      0.443150000000     0.960250000000     0.790690000000     0.0526732  
H207     H      0.542360000000     0.994940000000     0.845110000000     0.0393427  
H208     H      0.534040000000     0.006810000000     0.703370000000     0.0265787  
H209     H      0.542830000000     0.990610000000     0.018610000000     0.0440854  
H210     H      0.509880000000     0.098290000000     0.532070000000     0.0280635  
H211     H      0.433170000000     0.926080000000     0.010260000000     0.0282791  
H212     H      0.436760000000     0.981830000000     0.015330000000     0.044245   
H213     H      0.462180000000     0.039130000000     0.525070000000     0.0442926  
H214     H      0.567880000000     0.047510000000     0.529010000000     0.0439789  
H215     H      0.523510000000     0.943680000000     0.980360000000     0.0413817  
H216     H      0.481220000000     0.085890000000     0.563410000000     0.0419806  
H217     H      0.458240000000     0.998450000000     0.980890000000     0.0516324  
H218     H      0.546080000000     0.030220000000     0.563250000000     0.0516383  
H219     H      0.416640000000     0.934680000000     0.977160000000     0.0417026  
H220     H      0.572010000000     0.103250000000     0.534880000000     0.0276753  
H221     H      0.537600000000     0.005140000000     0.983380000000     0.0520293  
H222     H      0.466700000000     0.024270000000     0.560380000000     0.0521531  
H223     H      0.587500000000     0.093750000000     0.568090000000     0.0399782  
H224     H      0.495570000000     0.931300000000     0.012100000000     0.0279228  
H225     H      0.317560000000     0.732190000000     0.846290000000     0.0438228  
H226     H      0.283570000000     0.650650000000     0.945880000000     0.02686    
H227     H      0.294520000000     0.796680000000     0.893100000000     0.027333   
H228     H      0.282560000000     0.751450000000     0.926140000000     0.0443161  
H229     H      0.276890000000     0.701340000000     0.943660000000     0.0442328  
H230     H      0.315050000000     0.682890000000     0.863980000000     0.0437794  
H231     H      0.361180000000     0.798490000000     0.839980000000     0.0393864  
H232     H      0.235200000000     0.634810000000     0.950050000000     0.0404365  
H233     H      0.330480000000     0.764970000000     0.931510000000     0.0521943  
H234     H      0.266290000000     0.666400000000     0.859990000000     0.0525372  
H235     H      0.327470000000     0.818130000000     0.921700000000     0.0410693  
H236     H      0.307270000000     0.641030000000     0.899810000000     0.0267041  
H237     H      0.357900000000     0.750800000000     0.869240000000     0.0508987  
H238     H      0.237890000000     0.681100000000     0.919430000000     0.053085   
H239     H      0.275860000000     0.616670000000     0.870910000000     0.0390365  
H240     H      0.313620000000     0.784740000000     0.846460000000     0.0272625  
H241     H      0.783830000000     0.248410000000     0.682700000000     0.0441719  
H242     H      0.678060000000     0.270200000000     0.633530000000     0.0260651  
H243     H      0.827470000000     0.265080000000     0.606960000000     0.0269437  
H244     H      0.771820000000     0.263010000000     0.595470000000     0.0442153  
H245     H      0.719870000000     0.264070000000     0.603180000000     0.0441261  
H246     H      0.730480000000     0.244110000000     0.693000000000     0.0441424  
H247     H      0.852220000000     0.297520000000     0.681860000000     0.0399973  
H248     H      0.652330000000     0.233890000000     0.608690000000     0.0394199  
H249     H      0.786280000000     0.306930000000     0.610450000000     0.052081   
H250     H      0.708210000000     0.202540000000     0.673180000000     0.0533701  
H251     H      0.839960000000     0.308000000000     0.591440000000     0.039833   
H252     H      0.682450000000     0.256470000000     0.685740000000     0.0263441  
H253     H      0.794090000000     0.294480000000     0.681770000000     0.0515294  
H254     H      0.699530000000     0.216600000000     0.609670000000     0.0539259  
H255     H      0.661870000000     0.210540000000     0.697230000000     0.04018    
H256     H      0.836420000000     0.259660000000     0.658030000000     0.0270596  
H257     H      0.102750000000     0.471200000000     0.758880000000     0.0444045  
H258     H      0.964810000000     0.457460000000     0.756250000000     0.0284671  
H259     H      0.136180000000     0.571840000000     0.785340000000     0.0266505  
H260     H      0.074460000000     0.550540000000     0.774880000000     0.0439595  
H261     H      0.017460000000     0.514400000000     0.761960000000     0.0441611  
H262     H      0.045690000000     0.431840000000     0.747240000000     0.0444906  
H263     H      0.146580000000     0.492610000000     0.801020000000     0.0418272  
H264     H      0.966340000000     0.484860000000     0.726560000000     0.0415319  
H265     H      0.057580000000     0.521720000000     0.805990000000     0.0518461  
H266     H      0.052720000000     0.457870000000     0.715120000000     0.0517002  
H267     H      0.115750000000     0.571840000000     0.819200000000     0.0388986  
H268     H      0.981470000000     0.408660000000     0.747930000000     0.029108   
H269     H      0.080970000000     0.459610000000     0.793730000000     0.0533342  
H270     H      0.033050000000     0.516520000000     0.725630000000     0.0521918  
H271     H      0.994020000000     0.402360000000     0.712410000000     0.0409953  
H272     H      0.152790000000     0.525540000000     0.774490000000     0.0271582  
H273     H      0.004770000000     0.428470000000     0.978150000000     0.0445805  
H274     H      0.051650000000     0.505940000000     0.581150000000     0.0267023  
H275     H      0.024480000000     0.523720000000     0.944730000000     0.0266902  
H276     H      0.034420000000     0.535930000000     0.993460000000     0.0441891  
H277     H      0.040750000000     0.529990000000     0.539760000000     0.0439434  
H278     H      0.017650000000     0.422150000000     0.523780000000     0.0445891  
H279     H      0.035490000000     0.444990000000     0.930000000000     0.0388215  
H280     H      0.012920000000     0.511530000000     0.589080000000     0.0390016  
H281     H      0.078010000000     0.537010000000     0.994170000000     0.052785   
H282     H      0.974900000000     0.421490000000     0.530170000000     0.0531953  
H283     H      0.072840000000     0.556000000000     0.947290000000     0.0402631  
H284     H      0.041590000000     0.444410000000     0.570330000000     0.0270745  
H285     H      0.054590000000     0.452010000000     0.979810000000     0.053308   
H286     H      0.991570000000     0.500320000000     0.540100000000     0.051937   
H287     H      0.996220000000     0.405810000000     0.573760000000     0.0397874  
H288     H      0.003030000000     0.459780000000     0.937120000000     0.0265495  
H289     H      0.532090000000     0.744380000000     0.931350000000     0.0447909  
H290     H      0.549560000000     0.842730000000     0.865700000000     0.0286318  
H291     H      0.446900000000     0.680340000000     0.868840000000     0.0280138  
H292     H      0.494250000000     0.728570000000     0.840910000000     0.0442587  
H293     H      0.517820000000     0.786110000000     0.842620000000     0.0442395  
H294     H      0.504370000000     0.772770000000     0.936010000000     0.0446853  
H295     H      0.500430000000     0.678400000000     0.936720000000     0.041633   
H296     H      0.511180000000     0.840450000000     0.846340000000     0.040884   
H297     H      0.529260000000     0.719140000000     0.852740000000     0.0522629  
H298     H      0.466480000000     0.770090000000     0.916740000000     0.0530035  
H299     H      0.469920000000     0.663330000000     0.846930000000     0.0405696  
H300     H      0.545070000000     0.834830000000     0.920790000000     0.0283132  
H301     H      0.547700000000     0.725280000000     0.905620000000     0.0540472  
H302     H      0.473010000000     0.776190000000     0.855430000000     0.0513646  
H303     H      0.504750000000     0.829800000000     0.938570000000     0.0410345  
H304     H      0.467460000000     0.691350000000     0.925960000000     0.0280034  
H305     H      0.222220000000     0.414770000000     0.898080000000     0.0443433  
H306     H      0.332410000000     0.534660000000     0.938370000000     0.0286496  
H307     H      0.181500000000     0.433150000000     0.968960000000     0.0259635  
H308     H      0.243960000000     0.460850000000     0.977810000000     0.0437106  
H309     H      0.303330000000     0.485530000000     0.973530000000     0.0440074  
H310     H      0.280110000000     0.439670000000     0.885670000000     0.0446588  
H311     H      0.168630000000     0.426430000000     0.890210000000     0.0413778  
H312     H      0.366420000000     0.529310000000     0.957920000000     0.0404228  
H313     H      0.254920000000     0.500210000000     0.956740000000     0.0519759  
H314     H      0.312950000000     0.437760000000     0.908780000000     0.0526478  
H315     H      0.194140000000     0.479550000000     0.972040000000     0.0385266  
H316     H      0.317280000000     0.505760000000     0.883000000000     0.0302919  
H317     H      0.234120000000     0.459910000000     0.887920000000     0.0539179  
H318     H      0.325990000000     0.463730000000     0.958900000000     0.0524613  
H319     H      0.343400000000     0.485020000000     0.872250000000     0.0425853  
H320     H      0.169050000000     0.403560000000     0.922460000000     0.0265801  
H321     H      0.812380000000     0.488100000000     0.683220000000     0.0445044  
H322     H      0.775260000000     0.563010000000     0.603210000000     0.0267725  
H323     H      0.797920000000     0.426910000000     0.609160000000     0.0268068  
H324     H      0.810040000000     0.482370000000     0.588940000000     0.0438804  
H325     H      0.794930000000     0.524080000000     0.589480000000     0.0437174  
H326     H      0.804110000000     0.534630000000     0.677680000000     0.0443018  
H327     H      0.840150000000     0.450000000000     0.684300000000     0.0412107  
H328     H      0.733650000000     0.525680000000     0.589210000000     0.0392241  
H329     H      0.855160000000     0.507250000000     0.604650000000     0.0525947  
H330     H      0.759000000000     0.494940000000     0.673980000000     0.0531415  
H331     H      0.841980000000     0.447210000000     0.591780000000     0.0396306  
H332     H      0.786260000000     0.572230000000     0.654810000000     0.0267983  
H333     H      0.856780000000     0.509880000000     0.666350000000     0.0533791  
H334     H      0.752900000000     0.484130000000     0.599800000000     0.0507811  
H335     H      0.750220000000     0.545540000000     0.679870000000     0.0406253  
H336     H      0.796810000000     0.429890000000     0.665310000000     0.0273803  
H337     H      0.533630000000     0.264440000000     0.710050000000     0.044031   
H338     H      0.612560000000     0.343930000000     0.616890000000     0.0269084  
H339     H      0.459210000000     0.202690000000     0.654280000000     0.0265903  
H340     H      0.497240000000     0.252530000000     0.625930000000     0.0443967  
H341     H      0.548720000000     0.301710000000     0.611450000000     0.044623   
H342     H      0.585990000000     0.315080000000     0.700520000000     0.0441471  
H343     H      0.515430000000     0.197650000000     0.713070000000     0.038792   
H344     H      0.589450000000     0.366950000000     0.603940000000     0.0406409  
H345     H      0.532630000000     0.240460000000     0.622540000000     0.0534131  
H346     H      0.560020000000     0.337190000000     0.693460000000     0.0539598  
H347     H      0.475800000000     0.185290000000     0.626560000000     0.040663   
H348     H      0.634130000000     0.352020000000     0.668620000000     0.0261913  
H349     H      0.563860000000     0.251300000000     0.693230000000     0.0518548  
H350     H      0.534450000000     0.328150000000     0.631770000000     0.0539289  
H351     H      0.625850000000     0.380390000000     0.692100000000     0.0392759  
H352     H      0.480830000000     0.208760000000     0.703040000000     0.026392   
H353     H      0.590330000000     0.577160000000     0.046730000000     0.0442461  
H354     H      0.533290000000     0.494330000000     0.949560000000     0.026423   
H355     H      0.514570000000     0.489560000000     0.588350000000     0.0265891  
H356     H      0.504250000000     0.467550000000     0.541200000000     0.0441227  
H357     H      0.508320000000     0.470160000000     0.494430000000     0.0440748  
H358     H      0.593560000000     0.579840000000     0.999980000000     0.044208   
H359     H      0.612820000000     0.564230000000     0.592640000000     0.0398184  
H360     H      0.485690000000     0.482680000000     0.948570000000     0.03907    
H361     H      0.547580000000     0.468280000000     0.538650000000     0.0532787  
H362     H      0.550280000000     0.579060000000     0.003270000000     0.0528125  
H363     H      0.525490000000     0.454170000000     0.587310000000     0.0404814  
H364     H      0.582970000000     0.559050000000     0.952620000000     0.0267411  
H365     H      0.611840000000     0.550140000000     0.542500000000     0.0530457  
H366     H      0.486160000000     0.496600000000     0.998780000000     0.0526788  
H367     H      0.570830000000     0.593560000000     0.954450000000     0.0403941  
H368     H      0.565620000000     0.553890000000     0.591770000000     0.0265651  
H369     H      0.480050000000     0.482140000000     0.768980000000     0.0448906  
H370     H      0.594930000000     0.554850000000     0.719710000000     0.0300508  
H371     H      0.564860000000     0.565810000000     0.825000000000     0.0297464  
H372     H      0.578770000000     0.589060000000     0.774890000000     0.0448424  
H373     H      0.611980000000     0.566050000000     0.771620000000     0.044968   
H374     H      0.513220000000     0.458970000000     0.766360000000     0.0447809  
H375     H      0.456850000000     0.496320000000     0.813680000000     0.0418802  
H376     H      0.635150000000     0.551540000000     0.727240000000     0.0415005  
H377     H      0.533550000000     0.580670000000     0.770030000000     0.0519941  
H378     H      0.558390000000     0.467360000000     0.771620000000     0.0519436  
H379     H      0.552910000000     0.600000000000     0.819510000000     0.0402557  
H380     H      0.527540000000     0.481540000000     0.716090000000     0.0294129  
H381     H      0.480320000000     0.523010000000     0.766760000000     0.0520609  
H382     H      0.611790000000     0.525260000000     0.774400000000     0.0521771  
H383     H      0.539330000000     0.447340000000     0.722210000000     0.0400497  
H384     H      0.496630000000     0.492190000000     0.820950000000     0.0300582  
In1      In     0.626540000000     0.479260000000     0.147460000000     2.41282    
In2      In     0.467520000000     0.566200000000     0.395820000000     2.41499    
In3      In     0.919280000000     0.415070000000     0.142480000000     2.4002     
In4      In     0.155150000000     0.529060000000     0.397840000000     2.40323    
In5      In     0.549750000000     0.133230000000     0.148940000000     2.40462    
In6      In     0.452700000000     0.893600000000     0.396250000000     2.39398    
In7      In     0.626540000000     0.479260000000     0.647460000000     2.41306    
In8      In     0.467520000000     0.566200000000     0.895820000000     2.41464    
In9      In     0.919280000000     0.415070000000     0.642480000000     2.40045    
In10     In     0.155140000000     0.529060000000     0.897840000000     2.40311    
In11     In     0.549750000000     0.133230000000     0.648940000000     2.40459    
In12     In     0.452700000000     0.893600000000     0.896250000000     2.39409    
N1       N      0.484920000000     0.979430000000     0.342770000000    -0.177821   
N2       N      0.516740000000     0.045030000000     0.199600000000    -0.176863   
N3       N      0.534210000000     0.089810000000     0.068840000000    -0.174604   
N4       N      0.470100000000     0.939040000000     0.475710000000    -0.174053   
N5       N      0.251560000000     0.623300000000     0.409440000000    -0.176474   
N6       N      0.348720000000     0.810170000000     0.382070000000    -0.1755     
N7       N      0.654110000000     0.218860000000     0.152650000000    -0.176093   
N8       N      0.847160000000     0.307490000000     0.137230000000    -0.176038   
N9       N      0.978860000000     0.443130000000     0.216910000000    -0.174157   
N10      N      0.130030000000     0.530690000000     0.313350000000    -0.175249   
N11      N      0.001060000000     0.457170000000     0.082760000000    -0.176514   
N12      N      0.058730000000     0.501470000000     0.438520000000    -0.176359   
N13      N      0.506470000000     0.837000000000     0.392550000000    -0.174871   
N14      N      0.481440000000     0.666800000000     0.392570000000    -0.175232   
N15      N      0.357750000000     0.511810000000     0.413550000000    -0.174729   
N16      N      0.182880000000     0.457450000000     0.429260000000    -0.175314   
N17      N      0.737490000000     0.531430000000     0.135230000000    -0.175434   
N18      N      0.842880000000     0.447040000000     0.138140000000    -0.175765   
N19      N      0.607500000000     0.376760000000     0.148190000000    -0.175939   
N20      N      0.499990000000     0.190850000000     0.168420000000    -0.175546   
N21      N      0.525670000000     0.539200000000     0.450720000000    -0.176626   
N22      N      0.571610000000     0.508070000000     0.090890000000    -0.175845   
N23      N      0.585200000000     0.501450000000     0.218490000000    -0.175129   
N24      N      0.507160000000     0.545830000000     0.323000000000    -0.174594   
N25      N      0.484920000000     0.979440000000     0.842770000000    -0.177821   
N26      N      0.516740000000     0.045030000000     0.699600000000    -0.176803   
N27      N      0.534210000000     0.089810000000     0.568840000000    -0.174601   
N28      N      0.470100000000     0.939040000000     0.975710000000    -0.17398    
N29      N      0.251550000000     0.623300000000     0.909440000000    -0.176509   
N30      N      0.348720000000     0.810170000000     0.882070000000    -0.175502   
N31      N      0.654110000000     0.218860000000     0.652650000000    -0.176101   
N32      N      0.847160000000     0.307490000000     0.637230000000    -0.176001   
N33      N      0.978860000000     0.443130000000     0.716910000000    -0.174158   
N34      N      0.130030000000     0.530680000000     0.813350000000    -0.175256   
N35      N      0.001060000000     0.457170000000     0.582760000000    -0.176513   
N36      N      0.058730000000     0.501460000000     0.938520000000    -0.176368   
N37      N      0.506470000000     0.837000000000     0.892550000000    -0.17487    
N38      N      0.481440000000     0.666800000000     0.892570000000    -0.175232   
N39      N      0.357750000000     0.511810000000     0.913550000000    -0.174748   
N40      N      0.182880000000     0.457460000000     0.929260000000    -0.175315   
N41      N      0.737490000000     0.531430000000     0.635230000000    -0.175432   
N42      N      0.842880000000     0.447040000000     0.638140000000    -0.175757   
N43      N      0.607500000000     0.376760000000     0.648190000000    -0.175903   
N44      N      0.499990000000     0.190850000000     0.668420000000    -0.175545   
N45      N      0.525660000000     0.539200000000     0.950720000000    -0.176622   
N46      N      0.571610000000     0.508070000000     0.590890000000    -0.1759     
N47      N      0.585200000000     0.501450000000     0.718490000000    -0.175211   
N48      N      0.507160000000     0.545830000000     0.823000000000    -0.174537   
O1       O      0.578450000000     0.466170000000     0.117000000000    -0.501423   
O2       O      0.621620000000     0.520630000000     0.119800000000    -0.506962   
O3       O      0.582830000000     0.463770000000     0.182170000000    -0.507215   
O4       O      0.609050000000     0.425350000000     0.125750000000    -0.501461   
O5       O      0.677360000000     0.501210000000     0.118550000000    -0.506151   
O6       O      0.625320000000     0.431390000000     0.169780000000    -0.507857   
O7       O      0.630300000000     0.515930000000     0.184400000000    -0.500069   
O8       O      0.685910000000     0.509840000000     0.163720000000    -0.502715   
O9       O      0.474680000000     0.525640000000     0.422740000000    -0.512712   
O10      O      0.516880000000     0.580430000000     0.425340000000    -0.502569   
O11      O      0.462440000000     0.530790000000     0.357540000000    -0.496977   
O12      O      0.407230000000     0.529190000000     0.383180000000    -0.497846   
O13      O      0.483160000000     0.620370000000     0.416060000000    -0.501616   
O14      O      0.418870000000     0.548550000000     0.426280000000    -0.508839   
O15      O      0.510760000000     0.582330000000     0.360710000000    -0.506811   
O16      O      0.466140000000     0.612080000000     0.372160000000    -0.50839    
O17      O      0.944050000000     0.450850000000     0.182050000000    -0.495895   
O18      O      0.955590000000     0.408400000000     0.175920000000    -0.499094   
O19      O      0.956350000000     0.410350000000     0.109120000000    -0.508756   
O20      O      0.880880000000     0.363910000000     0.117460000000    -0.503719   
O21      O      0.884000000000     0.432920000000     0.117370000000    -0.502263   
O22      O      0.886890000000     0.358950000000     0.162370000000    -0.500257   
O23      O      0.963620000000     0.462270000000     0.116480000000    -0.507532   
O24      O      0.880060000000     0.430830000000     0.162960000000    -0.500859   
O25      O      0.149440000000     0.509770000000     0.351380000000    -0.492548   
O26      O      0.134880000000     0.549540000000     0.360490000000    -0.508172   
O27      O      0.097510000000     0.488050000000     0.413310000000    -0.514228   
O28      O      0.175260000000     0.506740000000     0.433860000000    -0.50796    
O29      O      0.213330000000     0.571380000000     0.384280000000    -0.513664   
O30      O      0.162430000000     0.480160000000     0.393260000000    -0.491757   
O31      O      0.116460000000     0.543170000000     0.421950000000    -0.496942   
O32      O      0.192650000000     0.580690000000     0.423000000000    -0.498129   
O33      O      0.567880000000     0.112480000000     0.110750000000    -0.502971   
O34      O      0.515280000000     0.108680000000     0.108330000000    -0.494969   
O35      O      0.561000000000     0.094870000000     0.175520000000    -0.504859   
O36      O      0.604280000000     0.169150000000     0.172550000000    -0.497841   
O37      O      0.514370000000     0.158040000000     0.137350000000    -0.49629    
O38      O      0.599430000000     0.181630000000     0.129040000000    -0.507532   
O39      O      0.505710000000     0.084020000000     0.173020000000    -0.512401   
O40      O      0.532650000000     0.162710000000     0.180760000000    -0.506667   
O41      O      0.488570000000     0.920280000000     0.435890000000    -0.494838   
O42      O      0.434950000000     0.914240000000     0.434760000000    -0.492754   
O43      O      0.496500000000     0.942280000000     0.371330000000    -0.508211   
O44      O      0.483180000000     0.870320000000     0.371760000000    -0.497075   
O45      O      0.392950000000     0.856200000000     0.409840000000    -0.494699   
O46      O      0.475450000000     0.860510000000     0.416780000000    -0.500198   
O47      O      0.440970000000     0.930170000000     0.367580000000    -0.513392   
O48      O      0.408730000000     0.848600000000     0.368230000000    -0.504205   
O49      O      0.578450000000     0.466170000000     0.617000000000    -0.501395   
O50      O      0.621620000000     0.520630000000     0.619800000000    -0.506899   
O51      O      0.582830000000     0.463780000000     0.682170000000    -0.507249   
O52      O      0.609050000000     0.425360000000     0.625750000000    -0.501518   
O53      O      0.677360000000     0.501210000000     0.618550000000    -0.506155   
O54      O      0.625320000000     0.431390000000     0.669780000000    -0.507848   
O55      O      0.630310000000     0.515930000000     0.684400000000    -0.500019   
O56      O      0.685910000000     0.509840000000     0.663720000000    -0.502725   
O57      O      0.474680000000     0.525630000000     0.922740000000    -0.512495   
O58      O      0.516880000000     0.580430000000     0.925340000000    -0.502525   
O59      O      0.462440000000     0.530780000000     0.857540000000    -0.496786   
O60      O      0.407230000000     0.529190000000     0.883180000000    -0.497836   
O61      O      0.483160000000     0.620370000000     0.916060000000    -0.501582   
O62      O      0.418870000000     0.548550000000     0.926280000000    -0.508819   
O63      O      0.510760000000     0.582330000000     0.860710000000    -0.50675    
O64      O      0.466140000000     0.612080000000     0.872160000000    -0.508361   
O65      O      0.944050000000     0.450850000000     0.682050000000    -0.495821   
O66      O      0.955590000000     0.408400000000     0.675920000000    -0.499194   
O67      O      0.956350000000     0.410350000000     0.609120000000    -0.50877    
O68      O      0.880880000000     0.363920000000     0.617460000000    -0.503713   
O69      O      0.884000000000     0.432920000000     0.617370000000    -0.502242   
O70      O      0.886900000000     0.358950000000     0.662370000000    -0.500184   
O71      O      0.963620000000     0.462270000000     0.616480000000    -0.507555   
O72      O      0.880060000000     0.430820000000     0.662960000000    -0.50093    
O73      O      0.149440000000     0.509770000000     0.851380000000    -0.49253    
O74      O      0.134880000000     0.549540000000     0.860490000000    -0.508262   
O75      O      0.097510000000     0.488050000000     0.913310000000    -0.514317   
O76      O      0.175260000000     0.506740000000     0.933860000000    -0.507969   
O77      O      0.213330000000     0.571380000000     0.884280000000    -0.513565   
O78      O      0.162420000000     0.480150000000     0.893260000000    -0.491593   
O79      O      0.116460000000     0.543170000000     0.921950000000    -0.497064   
O80      O      0.192650000000     0.580690000000     0.923000000000    -0.498098   
O81      O      0.567880000000     0.112480000000     0.610750000000    -0.502973   
O82      O      0.515280000000     0.108680000000     0.608330000000    -0.494968   
O83      O      0.561010000000     0.094870000000     0.675520000000    -0.504605   
O84      O      0.604270000000     0.169150000000     0.672550000000    -0.49793    
O85      O      0.514370000000     0.158040000000     0.637350000000    -0.496284   
O86      O      0.599430000000     0.181630000000     0.629040000000    -0.507519   
O87      O      0.505710000000     0.084020000000     0.673020000000    -0.512329   
O88      O      0.532650000000     0.162710000000     0.680760000000    -0.506647   
O89      O      0.488570000000     0.920280000000     0.935890000000    -0.494824   
O90      O      0.434940000000     0.914240000000     0.934760000000    -0.492496   
O91      O      0.496500000000     0.942280000000     0.871340000000    -0.508271   
O92      O      0.483180000000     0.870320000000     0.871760000000    -0.49708    
O93      O      0.392950000000     0.856200000000     0.909840000000    -0.49472    
O94      O      0.475450000000     0.860510000000     0.916780000000    -0.500212   
O95      O      0.440980000000     0.930170000000     0.867580000000    -0.513588   
O96      O      0.408730000000     0.848600000000     0.868230000000    -0.504213   


