data_structure

_audit_creation_method RASPA-1.0
_audit_creation_date 2023-5-22
_audit_author_name 'Poobodin Mano'

_cell_length_a    28.2098
_cell_length_b    31.7484
_cell_length_c    36.6028
_cell_angle_alpha 90
_cell_angle_beta  90
_cell_angle_gamma 90
_cell_volume      32782.1

_symmetry_cell_setting          triclinic
_symmetry_space_group_name_Hall 'P 1'
_symmetry_space_group_name_H-M  'P 1'
_symmetry_Int_Tables_number     1

_symmetry_equiv_pos_as_xyz 'x,y,z'

loop_
_atom_site_label
_atom_site_type_symbol
_atom_site_fract_x
_atom_site_fract_y
_atom_site_fract_z
_atom_site_charge
C1       C      0.084470000000     0.431680000000     0.865660000000     0.409434   
C2       C      0.966940000000     0.474860000000     0.798790000000     0.405298   
C3       C      0.036010000000     0.344970000000     0.782630000000     0.407894   
C4       C      0.936840000000     0.370180000000     0.868940000000     0.409002   
C5       C      0.160100000000     0.613170000000     0.054630000000     0.407342   
C6       C      0.266670000000     0.609930000000     0.150540000000     0.40741    
C7       C      0.275000000000     0.707250000000     0.076230000000     0.405732   
C8       C      0.137070000000     0.691820000000     0.142340000000     0.405736   
C9       C      0.344970000000     0.896490000000     0.891650000000     0.410617   
C10      C      0.369860000000     0.017030000000     0.826200000000     0.410409   
C11      C      0.456090000000     0.975470000000     0.923140000000     0.40687    
C12      C      0.463690000000     0.918320000000     0.810270000000     0.407558   
C13      C      0.858010000000     0.167970000000     0.037130000000     0.408333   
C14      C      0.727840000000     0.100410000000     0.023680000000     0.405366   
C15      C      0.828500000000     0.080920000000     0.122890000000     0.403926   
C16      C      0.728180000000     0.184560000000     0.114050000000     0.410155   
C17      C      0.533200000000     0.486100000000     0.262630000000     0.407852   
C18      C      0.483030000000     0.392700000000     0.329450000000     0.406826   
C19      C      0.637010000000     0.383660000000     0.288440000000     0.405985   
C20      C      0.606910000000     0.464480000000     0.374200000000     0.40793    
C21      C      0.724610000000     0.595940000000     0.662990000000     0.409038   
C22      C      0.622410000000     0.697110000000     0.692320000000     0.411283   
C23      C      0.738430000000     0.730600000000     0.625330000000     0.409334   
C24      C      0.631620000000     0.640460000000     0.579250000000     0.411186   
C25      C      0.903710000000     0.852610000000     0.431350000000     0.40485    
C26      C      0.900910000000     0.954930000000     0.348070000000     0.409285   
C27      C      0.017820000000     0.940240000000     0.431580000000     0.413062   
C28      C      0.998340000000     0.855310000000     0.333000000000     0.408278   
C29      C      0.243880000000     0.250080000000     0.601510000000     0.405435   
C30      C      0.311180000000     0.129430000000     0.597020000000     0.414218   
C31      C      0.215060000000     0.161630000000     0.506980000000     0.404005   
C32      C      0.345090000000     0.235660000000     0.514880000000     0.406683   
C33      C      0.196380000000     0.120530000000     0.451320000000     0.0149735  
C34      C      0.033420000000     0.986590000000     0.484700000000     0.0157213  
C35      C      0.100410000000     0.956330000000     0.449710000000     0.0157376  
C36      C      0.051000000000     0.031760000000     0.479060000000    -0.100584   
C37      C      0.178600000000     0.075310000000     0.455790000000    -0.100006   
C38      C      0.121410000000     0.999650000000     0.441270000000    -0.100505   
C39      C      0.127540000000     0.071940000000     0.469910000000     0.0174189  
C40      C      0.102480000000     0.034940000000     0.465840000000     0.0178162  
C41      C      0.131470000000     0.150050000000     0.488840000000     0.0151023  
C42      C      0.108970000000     0.106790000000     0.495180000000    -0.100015   
C43      C      0.819860000000     0.758760000000     0.618670000000     0.0156736  
C44      C      0.825760000000     0.834240000000     0.457940000000     0.0146741  
C45      C      0.896820000000     0.791040000000     0.472560000000     0.0146115  
C46      C      0.813680000000     0.840260000000     0.498310000000    -0.101015   
C47      C      0.839830000000     0.762190000000     0.579870000000    -0.0998641  
C48      C      0.887660000000     0.794390000000     0.513690000000    -0.101012   
C49      C      0.816230000000     0.795770000000     0.555790000000     0.0177226  
C50      C      0.836730000000     0.807210000000     0.523060000000     0.0178002  
C51      C      0.751040000000     0.803960000000     0.604660000000     0.0167996  
C52      C      0.765520000000     0.809900000000     0.564740000000    -0.10032    
C53      C      0.434360000000     0.327820000000     0.330710000000     0.0158179  
C54      C      0.383670000000     0.303060000000     0.498700000000     0.0149361  
C55      C      0.410150000000     0.236640000000     0.469360000000     0.0143917  
C56      C      0.373570000000     0.324160000000     0.462020000000    -0.100444   
C57      C      0.434710000000     0.303210000000     0.366710000000    -0.100106   
C58      C      0.402790000000     0.254640000000     0.430910000000    -0.100507   
C59      C      0.409070000000     0.325010000000     0.398530000000     0.017867   
C60      C      0.398800000000     0.302810000000     0.429910000000     0.0174048  
C61      C      0.404770000000     0.392740000000     0.359860000000     0.0167714  
C62      C      0.403800000000     0.373130000000     0.397990000000    -0.100267   
C63      C      0.615990000000     0.646170000000     0.512850000000     0.0152551  
C64      C      0.619530000000     0.463210000000     0.441110000000     0.0155491  
C65      C      0.660280000000     0.516700000000     0.403130000000     0.0152213  
C66      C      0.596320000000     0.496550000000     0.465380000000    -0.100556   
C67      C      0.636700000000     0.612950000000     0.487090000000    -0.100317   
C68      C      0.640010000000     0.553280000000     0.425460000000    -0.100518   
C69      C      0.613230000000     0.569470000000     0.489920000000     0.0173576  
C70      C      0.619300000000     0.540180000000     0.462510000000     0.0177576  
C71      C      0.573460000000     0.592980000000     0.549780000000     0.0155284  
C72      C      0.591870000000     0.556290000000     0.526720000000    -0.100314   
C73      C      0.885890000000     0.026190000000     0.323140000000     0.0155673  
C74      C      0.833220000000     0.011770000000     0.154080000000     0.0148184  
C75      C      0.893320000000     0.066840000000     0.166790000000     0.0147399  
C76      C      0.821090000000     0.006820000000     0.194630000000    -0.100412   
C77      C      0.896140000000     0.033890000000     0.282640000000    -0.100328   
C78      C      0.883600000000     0.066000000000     0.207870000000    -0.10027    
C79      C      0.860450000000     0.013300000000     0.256540000000     0.0173278  
C80      C      0.857750000000     0.026190000000     0.220620000000     0.0174208  
C81      C      0.829740000000     0.968290000000     0.310190000000     0.0156013  
C82      C      0.835510000000     0.972750000000     0.268790000000    -0.100174   
C83      C      0.680950000000     0.316110000000     0.288240000000     0.0156651  
C84      C      0.691490000000     0.254570000000     0.122900000000     0.016001   
C85      C      0.672950000000     0.196330000000     0.165720000000     0.0145948  
C86      C      0.708550000000     0.283490000000     0.153540000000    -0.100935   
C87      C      0.670680000000     0.284900000000     0.257340000000    -0.100124   
C88      C      0.687570000000     0.222500000000     0.199040000000    -0.100523   
C89      C      0.688700000000     0.298670000000     0.219620000000     0.017636   
C90      C      0.691450000000     0.269910000000     0.191490000000     0.0175627  
C91      C      0.703680000000     0.372860000000     0.245520000000     0.0159345  
C92      C      0.693970000000     0.345910000000     0.211740000000    -0.100135   
C93      C      0.375370000000     0.097010000000     0.633540000000     0.0163982  
C94      C      0.302280000000     0.049320000000     0.793300000000     0.0153951  
C95      C      0.380240000000     0.084720000000     0.793700000000     0.0158185  
C96      C      0.301960000000     0.045010000000     0.751610000000    -0.100109   
C97      C      0.374430000000     0.104140000000     0.674860000000    -0.100582   
C98      C      0.385810000000     0.081790000000     0.752230000000    -0.100071   
C99      C      0.336240000000     0.078560000000     0.694820000000     0.0178346  
C100     C      0.339740000000     0.071370000000     0.731870000000     0.0171124  
C101     C      0.295500000000     0.064850000000     0.633020000000     0.015825   
C102     C      0.289860000000     0.069200000000     0.674460000000    -0.100251   
C103     C      0.543300000000     0.898590000000     0.787470000000     0.0154463  
C104     C      0.542340000000     0.716080000000     0.714640000000     0.0154622  
C105     C      0.612490000000     0.728380000000     0.753810000000     0.0159882  
C106     C      0.527490000000     0.762410000000     0.715870000000    -0.100449   
C107     C      0.557950000000     0.852200000000     0.786700000000    -0.100333   
C108     C      0.602350000000     0.775540000000     0.757220000000    -0.100634   
C109     C      0.533230000000     0.826190000000     0.756970000000     0.0177878  
C110     C      0.552020000000     0.788210000000     0.745840000000     0.0176363  
C111     C      0.472420000000     0.885840000000     0.749150000000     0.0160887  
C112     C      0.482730000000     0.838690000000     0.745880000000    -0.10061    
C113     C      0.513930000000     0.959910000000     0.972260000000     0.0160044  
C114     C      0.663620000000     0.109950000000     0.978400000000     0.0151426  
C115     C      0.701260000000     0.039930000000     0.986070000000     0.0148603  
C116     C      0.614000000000     0.092660000000     0.985780000000    -0.100607   
C117     C      0.564110000000     0.978040000000     0.969450000000    -0.1004     
C118     C      0.653470000000     0.018310000000     0.992700000000    -0.100693   
C119     C      0.567250000000     0.025920000000     0.974630000000     0.0177823  
C120     C      0.610390000000     0.044770000000     0.981440000000     0.0174961  
C121     C      0.476570000000     0.030220000000     0.968590000000     0.0159818  
C122     C      0.524080000000     0.052870000000     0.964510000000    -0.100314   
C123     C      0.077050000000     0.689370000000     0.191660000000     0.0145721  
C124     C      0.047000000000     0.852750000000     0.276800000000     0.0129633  
C125     C      0.020930000000     0.785780000000     0.307950000000     0.0133614  
C126     C      0.033900000000     0.834190000000     0.239370000000    -0.102431   
C127     C      0.078570000000     0.718510000000     0.224850000000    -0.101747   
C128     C      0.005560000000     0.767630000000     0.271200000000    -0.102278   
C129     C      0.060010000000     0.762460000000     0.215710000000     0.0183381  
C130     C      0.035470000000     0.786260000000     0.240670000000     0.0187381  
C131     C      0.080020000000     0.750610000000     0.148860000000     0.0139425  
C132     C      0.079840000000     0.781900000000     0.180790000000    -0.101315   
C133     C      0.338700000000     0.720230000000     0.031070000000     0.0159644  
C134     C      0.281130000000     0.880790000000     0.935980000000     0.0151672  
C135     C      0.315410000000     0.823500000000     0.898660000000     0.0152937  
C136     C      0.296330000000     0.860370000000     0.971990000000    -0.100119   
C137     C      0.324420000000     0.741510000000     0.995180000000    -0.10024    
C138     C      0.332040000000     0.798870000000     0.932270000000    -0.10013    
C139     C      0.311600000000     0.788310000000     0.998890000000     0.0177464  
C140     C      0.310240000000     0.813830000000     0.968430000000     0.0172165  
C141     C      0.308040000000     0.778910000000     0.068600000000     0.0157034  
C142     C      0.290870000000     0.803690000000     0.035280000000    -0.100198   
C143     C      0.504750000000     0.499780000000     0.199740000000     0.0154895  
C144     C      0.310970000000     0.602480000000     0.208630000000     0.0147206  
C145     C      0.307880000000     0.543040000000     0.164590000000     0.0149566  
C146     C      0.365150000000     0.600760000000     0.210750000000    -0.100836   
C147     C      0.451480000000     0.504900000000     0.193300000000    -0.100168   
C148     C      0.361850000000     0.538600000000     0.163990000000    -0.100917   
C149     C      0.430520000000     0.546100000000     0.208080000000     0.0172576  
C150     C      0.386380000000     0.559400000000     0.196670000000     0.0176632  
C151     C      0.507570000000     0.557820000000     0.244700000000     0.0153386  
C152     C      0.454530000000     0.567110000000     0.240990000000    -0.100203   
C153     C      0.032650000000     0.310350000000     0.722060000000     0.0156466  
C154     C      0.242960000000     0.282470000000     0.663010000000     0.0153123  
C155     C      0.188190000000     0.308290000000     0.615130000000     0.015864   
C156     C      0.202490000000     0.272070000000     0.689280000000    -0.100339   
C157     C      0.072860000000     0.318450000000     0.694880000000    -0.10055    
C158     C      0.144320000000     0.299750000000     0.638570000000    -0.100739   
C159     C      0.120090000000     0.297520000000     0.705060000000     0.0172823  
C160     C      0.155190000000     0.292850000000     0.679190000000     0.0175298  
C161     C      0.087330000000     0.283600000000     0.769500000000     0.0155096  
C162     C      0.131130000000     0.290300000000     0.745620000000    -0.100279   
C163     C      0.904840000000     0.173260000000     0.980200000000     0.015149   
C164     C      0.892710000000     0.364450000000     0.927120000000     0.016306   
C165     C      0.877400000000     0.313730000000     0.877330000000     0.015143   
C166     C      0.909820000000     0.330180000000     0.953370000000    -0.100514   
C167     C      0.888170000000     0.207350000000     0.953580000000    -0.0999577  
C168     C      0.893870000000     0.276040000000     0.900090000000    -0.10007    
C169     C      0.899440000000     0.252490000000     0.965900000000     0.0174605  
C170     C      0.897800000000     0.285160000000     0.941170000000     0.0174899  
C171     C      0.918100000000     0.224100000000     0.030190000000     0.0163062  
C172     C      0.902710000000     0.261760000000     0.006990000000    -0.10041    
C173     C      0.957910000000     0.524100000000     0.746700000000     0.0152057  
C174     C      0.737600000000     0.542400000000     0.710990000000     0.0162085  
C175     C      0.786920000000     0.541630000000     0.655150000000     0.0157641  
C176     C      0.780070000000     0.549200000000     0.736150000000    -0.100332   
C177     C      0.914570000000     0.519300000000     0.721760000000    -0.100343   
C178     C      0.833060000000     0.546180000000     0.676930000000    -0.100498   
C179     C      0.867220000000     0.531490000000     0.739540000000     0.0172879  
C180     C      0.827840000000     0.539020000000     0.718230000000     0.0178202  
C181     C      0.908400000000     0.532700000000     0.801940000000     0.015306   
C182     C      0.862120000000     0.526360000000     0.781010000000    -0.100062   
C183     C      0.127860000000     0.608480000000     0.991820000000     0.0150595  
C184     C      0.137070000000     0.426330000000     0.919480000000     0.0164455  
C185     C      0.149000000000     0.483440000000     0.874760000000     0.015101   
C186     C      0.125190000000     0.456630000000     0.950620000000    -0.100234   
C187     C      0.149190000000     0.578220000000     0.963710000000    -0.10077    
C188     C      0.138890000000     0.518050000000     0.902850000000    -0.0997205  
C189     C      0.136750000000     0.531920000000     0.970760000000     0.0179364  
C190     C      0.136770000000     0.502980000000     0.942700000000     0.017119   
C191     C      0.113220000000     0.550810000000     0.036190000000     0.015355   
C192     C      0.134330000000     0.517590000000     0.010700000000    -0.100802   
H1       H      0.182230000000     0.060510000000     0.428450000000     0.0440367  
H2       H      0.048920000000     0.974390000000     0.510580000000     0.0260901  
H3       H      0.115360000000     0.164070000000     0.463890000000     0.0263811  
H4       H      0.070250000000     0.111510000000     0.491540000000     0.0438588  
H5       H      0.046110000000     0.047660000000     0.505810000000     0.0438776  
H6       H      0.160360000000     0.995930000000     0.444180000000     0.044172   
H7       H      0.235390000000     0.120250000000     0.446940000000     0.0393557  
H8       H      0.994230000000     0.986780000000     0.487920000000     0.0386306  
H9       H      0.115610000000     0.097130000000     0.523920000000     0.052907   
H10      H      0.113450000000     0.007850000000     0.412390000000     0.0531201  
H11      H      0.122900000000     0.171110000000     0.512200000000     0.0400108  
H12      H      0.116420000000     0.944640000000     0.475590000000     0.0265646  
H13      H      0.202290000000     0.058500000000     0.475200000000     0.0525569  
H14      H      0.027860000000     0.047550000000     0.458640000000     0.0533666  
H15      H      0.110330000000     0.933930000000     0.427630000000     0.0392636  
H16      H      0.179690000000     0.134210000000     0.426440000000     0.0263251  
H17      H      0.878260000000     0.768880000000     0.583100000000     0.043744   
H18      H      0.806570000000     0.805920000000     0.447800000000     0.028106   
H19      H      0.767530000000     0.829550000000     0.621100000000     0.0255555  
H20      H      0.760920000000     0.843990000000     0.558860000000     0.0440468  
H21      H      0.774430000000     0.839500000000     0.499700000000     0.0443812  
H22      H      0.897170000000     0.763130000000     0.525030000000     0.0441139  
H23      H      0.831270000000     0.728460000000     0.631100000000     0.0389765  
H24      H      0.812640000000     0.861840000000     0.442220000000     0.041098   
H25      H      0.740610000000     0.791740000000     0.547240000000     0.0545161  
H26      H      0.912150000000     0.818160000000     0.525550000000     0.0519653  
H27      H      0.711930000000     0.807120000000     0.607220000000     0.0386189  
H28      H      0.879190000000     0.762000000000     0.462310000000     0.0283469  
H29      H      0.835770000000     0.731120000000     0.566200000000     0.0529073  
H30      H      0.825750000000     0.871970000000     0.507200000000     0.0525981  
H31      H      0.935540000000     0.787500000000     0.467790000000     0.0406779  
H32      H      0.835180000000     0.784680000000     0.635390000000     0.025883   
H33      H      0.418170000000     0.272240000000     0.360640000000     0.0440007  
H34      H      0.420880000000     0.310300000000     0.506620000000     0.0272338  
H35      H      0.369750000000     0.387230000000     0.346690000000     0.0253931  
H36      H      0.369500000000     0.382790000000     0.410330000000     0.043986   
H37      H      0.384680000000     0.357440000000     0.465460000000     0.0441721  
H38      H      0.433210000000     0.243090000000     0.414530000000     0.0443721  
H39      H      0.461580000000     0.314630000000     0.311940000000     0.0395607  
H40      H      0.360060000000     0.316780000000     0.519920000000     0.0395951  
H41      H      0.433100000000     0.386980000000     0.414370000000     0.0545194  
H42      H      0.369780000000     0.241130000000     0.419180000000     0.0521247  
H43      H      0.409860000000     0.427380000000     0.362170000000     0.0381803  
H44      H      0.447430000000     0.242850000000     0.477710000000     0.0279821  
H45      H      0.472170000000     0.297830000000     0.374900000000     0.0538142  
H46      H      0.334760000000     0.323560000000     0.456790000000     0.0523642  
H47      H      0.405060000000     0.201920000000     0.468620000000     0.040722   
H48      H      0.399120000000     0.323510000000     0.317560000000     0.0258423  
H49      H      0.632890000000     0.626170000000     0.459160000000     0.0440858  
H50      H      0.654050000000     0.454200000000     0.453580000000     0.0264017  
H51      H      0.539300000000     0.603880000000     0.537870000000     0.0273136  
H52      H      0.561080000000     0.534970000000     0.522830000000     0.0440624  
H53      H      0.598470000000     0.483910000000     0.493600000000     0.0439559  
H54      H      0.669700000000     0.575900000000     0.428770000000     0.0441846  
H55      H      0.640160000000     0.673810000000     0.513980000000     0.0390073  
H56      H      0.596810000000     0.434600000000     0.440480000000     0.0389808  
H57      H      0.619480000000     0.539210000000     0.542550000000     0.0521111  
H58      H      0.611560000000     0.568820000000     0.409350000000     0.0535437  
H59      H      0.566170000000     0.581790000000     0.578010000000     0.0398945  
H60      H      0.694950000000     0.507530000000     0.415260000000     0.0264927  
H61      H      0.675110000000     0.609330000000     0.493130000000     0.0519058  
H62      H      0.558310000000     0.499430000000     0.457760000000     0.0529755  
H63      H      0.667040000000     0.527460000000     0.374700000000     0.0399535  
H64      H      0.581610000000     0.657090000000     0.501330000000     0.0270083  
H65      H      0.896540000000     0.068640000000     0.279160000000     0.0437885  
H66      H      0.861680000000     0.988820000000     0.147190000000     0.0267723  
H67      H      0.799820000000     0.988770000000     0.319000000000     0.0269188  
H68      H      0.799100000000     0.970880000000     0.257390000000     0.0438611  
H69      H      0.817270000000     0.972410000000     0.199080000000     0.0437856  
H70      H      0.918810000000     0.069260000000     0.221100000000     0.0439034  
H71      H      0.917190000000     0.035740000000     0.339630000000     0.0390818  
H72      H      0.801610000000     0.003650000000     0.137360000000     0.0406575  
H73      H      0.856240000000     0.945450000000     0.258480000000     0.0519873  
H74      H      0.861740000000     0.093840000000     0.215290000000     0.052265   
H75      H      0.820090000000     0.935240000000     0.316950000000     0.0401823  
H76      H      0.922150000000     0.043950000000     0.160750000000     0.026776   
H77      H      0.932050000000     0.021510000000     0.276210000000     0.0526171  
H78      H      0.786240000000     0.021970000000     0.199960000000     0.0528795  
H79      H      0.906200000000     0.098670000000     0.158910000000     0.0397247  
H80      H      0.855590000000     0.046530000000     0.331380000000     0.0266731  
H81      H      0.687290000000     0.254720000000     0.265790000000     0.0437784  
H82      H      0.652930000000     0.260150000000     0.118660000000     0.0272788  
H83      H      0.741380000000     0.368400000000     0.253610000000     0.0261631  
H84      H      0.724040000000     0.351860000000     0.192830000000     0.0441813  
H85      H      0.695550000000     0.315370000000     0.146190000000     0.0443919  
H86      H      0.660670000000     0.215570000000     0.220320000000     0.0438671  
H87      H      0.658840000000     0.308120000000     0.312420000000     0.0395349  
H88      H      0.710010000000     0.263030000000     0.097100000000     0.0403798  
H89      H      0.660790000000     0.357210000000     0.198600000000     0.0538917  
H90      H      0.722550000000     0.211150000000     0.208970000000     0.0511024  
H91      H      0.698710000000     0.406680000000     0.238610000000     0.039517   
H92      H      0.634310000000     0.200940000000     0.161070000000     0.0270701  
H93      H      0.631700000000     0.280160000000     0.255550000000     0.0537913  
H94      H      0.747950000000     0.284080000000     0.153600000000     0.0531467  
H95      H      0.678830000000     0.162380000000     0.171650000000     0.0382167  
H96      H      0.718770000000     0.312610000000     0.296370000000     0.0258578  
H97      H      0.410500000000     0.095970000000     0.684700000000     0.0441642  
H98      H      0.285020000000     0.079700000000     0.800610000000     0.0267365  
H99      H      0.311600000000     0.033560000000     0.627150000000     0.0259928  
H100     H      0.273790000000     0.039150000000     0.683810000000     0.0437545  
H101     H      0.265740000000     0.054140000000     0.742750000000     0.0437863  
H102     H      0.400260000000     0.112700000000     0.743400000000     0.0440795  
H103     H      0.398560000000     0.121010000000     0.620500000000     0.0393716  
H104     H      0.280890000000     0.023540000000     0.805610000000     0.0395998  
H105     H      0.264470000000     0.095130000000     0.680230000000     0.0525943  
H106     H      0.412370000000     0.056990000000     0.745830000000     0.0523614  
H107     H      0.259980000000     0.065580000000     0.619860000000     0.037694   
H108     H      0.362160000000     0.114930000000     0.800310000000     0.0268773  
H109     H      0.368100000000     0.138130000000     0.680290000000     0.054447   
H110     H      0.307670000000     0.011350000000     0.744470000000     0.0527204  
H111     H      0.415830000000     0.085390000000     0.806740000000     0.0395689  
H112     H      0.391190000000     0.065500000000     0.628160000000     0.0262924  
H113     H      0.597000000000     0.852260000000     0.782930000000     0.0439113  
H114     H      0.524560000000     0.699320000000     0.737560000000     0.027273   
H115     H      0.489900000000     0.902240000000     0.725900000000     0.0257546  
H116     H      0.475430000000     0.830540000000     0.716930000000     0.044105   
H117     H      0.488440000000     0.762150000000     0.719610000000     0.0442271  
H118     H      0.609300000000     0.783530000000     0.786260000000     0.0440265  
H119     H      0.556420000000     0.913360000000     0.813100000000     0.0395537  
H120     H      0.529690000000     0.701700000000     0.688720000000     0.0400161  
H121     H      0.457370000000     0.821150000000     0.763460000000     0.0539696  
H122     H      0.627980000000     0.793100000000     0.739890000000     0.0525077  
H123     H      0.433610000000     0.891250000000     0.746690000000     0.0388282  
H124     H      0.594430000000     0.711840000000     0.776730000000     0.0272316  
H125     H      0.549800000000     0.837840000000     0.813680000000     0.0529906  
H126     H      0.535600000000     0.777140000000     0.689030000000     0.0525943  
H127     H      0.651220000000     0.722800000000     0.756700000000     0.0396138  
H128     H      0.560740000000     0.914920000000     0.764160000000     0.0262545  
H129     H      0.585300000000     0.961270000000     0.990470000000     0.0439685  
H130     H      0.670330000000     0.108470000000     0.948460000000     0.0272545  
H131     H      0.467890000000     0.028210000000     0.998210000000     0.0261885  
H132     H      0.521670000000     0.081190000000     0.982230000000     0.0441671  
H133     H      0.590340000000     0.109460000000     0.966430000000     0.044256   
H134     H      0.655170000000     0.988260000000     0.977280000000     0.0442903  
H135     H      0.513580000000     0.927340000000     0.961100000000     0.0389139  
H136     H      0.665030000000     0.143620000000     0.986680000000     0.0395578  
H137     H      0.528030000000     0.063330000000     0.935690000000     0.0538383  
H138     H      0.650220000000     0.010790000000     0.022250000000     0.0523906  
H139     H      0.448280000000     0.049070000000     0.955170000000     0.0399203  
H140     H      0.709200000000     0.038510000000     0.956310000000     0.0277951  
H141     H      0.578750000000     0.970150000000     0.942090000000     0.0538735  
H142     H      0.603330000000     0.101100000000     0.014080000000     0.0522522  
H143     H      0.729590000000     0.022230000000     0.000580000000     0.0411716  
H144     H      0.504200000000     0.957970000000     0.001690000000     0.0256253  
H145     H      0.060050000000     0.702320000000     0.247330000000     0.0449387  
H146     H      0.085490000000     0.847410000000     0.281520000000     0.0296893  
H147     H      0.042750000000     0.745600000000     0.139890000000     0.0272593  
H148     H      0.058050000000     0.808940000000     0.171430000000     0.0441619  
H149     H      0.059040000000     0.848150000000     0.219540000000     0.0442659  
H150     H      0.004890000000     0.732950000000     0.272750000000     0.0445639  
H151     H      0.093980000000     0.658850000000     0.198820000000     0.0402202  
H152     H      0.041110000000     0.887360000000     0.276030000000     0.0398697  
H153     H      0.116560000000     0.793080000000     0.186020000000     0.0529451  
H154     H      0.968070000000     0.776890000000     0.266290000000     0.0527492  
H155     H      0.099660000000     0.764730000000     0.125550000000     0.0408121  
H156     H      0.057670000000     0.775010000000     0.313840000000     0.0292572  
H157     H      0.116060000000     0.721810000000     0.233750000000     0.0549662  
H158     H      0.997550000000     0.844430000000     0.231710000000     0.0507347  
H159     H      0.997420000000     0.773050000000     0.329690000000     0.0411114  
H160     H      0.039290000000     0.682980000000     0.184840000000     0.0272556  
H161     H      0.354900000000     0.737020000000     0.976380000000     0.0438289  
H162     H      0.244990000000     0.869280000000     0.929000000000     0.0275389  
H163     H      0.345160000000     0.788540000000     0.074650000000     0.0261676  
H164     H      0.300550000000     0.837040000000     0.040590000000     0.0441516  
H165     H      0.265940000000     0.864450000000     0.990940000000     0.0443911  
H166     H      0.323030000000     0.765430000000     0.926700000000     0.0439021  
H167     H      0.338700000000     0.685460000000     0.027400000000     0.0385902  
H168     H      0.279060000000     0.915520000000     0.939550000000     0.039768   
H169     H      0.251600000000     0.801390000000     0.033760000000     0.0542407  
H170     H      0.371230000000     0.801620000000     0.934390000000     0.0521512  
H171     H      0.285950000000     0.787180000000     0.092710000000     0.0400643  
H172     H      0.279020000000     0.812730000000     0.891530000000     0.0269145  
H173     H      0.293270000000     0.724640000000     0.983670000000     0.0540592  
H174     H      0.327170000000     0.877990000000     0.983130000000     0.0518929  
H175     H      0.338860000000     0.816170000000     0.875090000000     0.0390319  
H176     H      0.375570000000     0.729970000000     0.037830000000     0.0257094  
H177     H      0.446510000000     0.502590000000     0.163260000000     0.0438539  
H178     H      0.296290000000     0.582190000000     0.230690000000     0.0279462  
H179     H      0.527000000000     0.577600000000     0.224550000000     0.0270303  
H180     H      0.451560000000     0.601940000000     0.239310000000     0.0439457  
H181     H      0.373870000000     0.606330000000     0.239910000000     0.0440642  
H182     H      0.368660000000     0.504210000000     0.162890000000     0.0440632  
H183     H      0.515150000000     0.466570000000     0.194370000000     0.0393431  
H184     H      0.298990000000     0.635290000000     0.213940000000     0.0396845  
H185     H      0.436270000000     0.556320000000     0.266230000000     0.0525535  
H186     H      0.375820000000     0.553060000000     0.138520000000     0.0524124  
H187     H      0.519780000000     0.567140000000     0.272420000000     0.0401207  
H188     H      0.293620000000     0.521810000000     0.186140000000     0.027791   
H189     H      0.432700000000     0.478120000000     0.206470000000     0.0519605  
H190     H      0.380130000000     0.627100000000     0.194410000000     0.0516463  
H191     H      0.293290000000     0.532300000000     0.137950000000     0.040539   
H192     H      0.523910000000     0.519990000000     0.179750000000     0.0269486  
H193     H      0.059740000000     0.306850000000     0.668110000000     0.044157   
H194     H      0.254670000000     0.315380000000     0.668320000000     0.0273274  
H195     H      0.073800000000     0.251150000000     0.764630000000     0.0265069  
H196     H      0.153380000000     0.261800000000     0.749520000000     0.0437565  
H197     H      0.214970000000     0.282310000000     0.716640000000     0.0437946  
H198     H      0.120700000000     0.327290000000     0.634390000000     0.0443191  
H199     H      0.002970000000     0.332470000000     0.716480000000     0.0402835  
H200     H      0.273540000000     0.261360000000     0.668690000000     0.0391812  
H201     H      0.150980000000     0.318070000000     0.756020000000     0.0521968  
H202     H      0.126070000000     0.271230000000     0.627960000000     0.0533396  
H203     H      0.097530000000     0.285870000000     0.798780000000     0.039119   
H204     H      0.200110000000     0.341160000000     0.620350000000     0.027572   
H205     H      0.078740000000     0.352990000000     0.692820000000     0.0527872  
H206     H      0.197300000000     0.237360000000     0.689830000000     0.0517571  
H207     H      0.178500000000     0.305940000000     0.585760000000     0.0412927  
H208     H      0.019200000000     0.277790000000     0.717660000000     0.0269616  
H209     H      0.905390000000     0.200090000000     0.927030000000     0.0441816  
H210     H      0.853790000000     0.368360000000     0.930780000000     0.026712   
H211     H      0.957010000000     0.219770000000     0.026830000000     0.0267073  
H212     H      0.928890000000     0.287050000000     0.012640000000     0.0443696  
H213     H      0.893400000000     0.337620000000     0.980170000000     0.0443399  
H214     H      0.867990000000     0.250440000000     0.894630000000     0.0441351  
H215     H      0.888270000000     0.142630000000     0.972840000000     0.0389766  
H216     H      0.909830000000     0.394930000000     0.934200000000     0.0400448  
H217     H      0.867330000000     0.272520000000     0.016570000000     0.0541062  
H218     H      0.929210000000     0.265780000000     0.890030000000     0.05236    
H219     H      0.911190000000     0.230840000000     0.059530000000     0.0401916  
H220     H      0.838640000000     0.317990000000     0.881660000000     0.0267852  
H221     H      0.849150000000     0.204510000000     0.950090000000     0.0523209  
H222     H      0.948950000000     0.332720000000     0.956230000000     0.0538076  
H223     H      0.883170000000     0.307040000000     0.847850000000     0.0389431  
H224     H      0.943920000000     0.169710000000     0.977340000000     0.0269067  
H225     H      0.921970000000     0.539090000000     0.697410000000     0.0441208  
H226     H      0.731880000000     0.507910000000     0.707810000000     0.0264566  
H227     H      0.917000000000     0.566910000000     0.801990000000     0.026774   
H228     H      0.836860000000     0.549700000000     0.792480000000     0.0443351  
H229     H      0.773610000000     0.528940000000     0.760380000000     0.0443637  
H230     H      0.858240000000     0.523310000000     0.664710000000     0.0440714  
H231     H      0.988450000000     0.506830000000     0.734680000000     0.0404309  
H232     H      0.705270000000     0.555880000000     0.723850000000     0.0396636  
H233     H      0.848400000000     0.494210000000     0.786770000000     0.0525515  
H234     H      0.847300000000     0.578450000000     0.672600000000     0.0535985  
H235     H      0.903530000000     0.522700000000     0.830810000000     0.0394921  
H236     H      0.779480000000     0.507460000000     0.651540000000     0.0261087  
H237     H      0.912150000000     0.485920000000     0.712800000000     0.0528095  
H238     H      0.780550000000     0.582630000000     0.745180000000     0.0540184  
H239     H      0.791650000000     0.555560000000     0.627520000000     0.0389043  
H240     H      0.967570000000     0.558060000000     0.747820000000     0.0270003  
H241     H      0.136100000000     0.589290000000     0.936800000000     0.0439467  
H242     H      0.176050000000     0.420840000000     0.919460000000     0.0262916  
H243     H      0.074440000000     0.552760000000     0.030860000000     0.0268913  
H244     H      0.111860000000     0.489220000000     0.014240000000     0.0444033  
H245     H      0.145330000000     0.445250000000     0.974760000000     0.044251   
H246     H      0.167300000000     0.541940000000     0.899310000000     0.0438303  
H247     H      0.143770000000     0.640250000000     0.988170000000     0.0391828  
H248     H      0.119470000000     0.395500000000     0.924360000000     0.0395415  
H249     H      0.170810000000     0.509810000000     0.020000000000     0.0538491  
H250     H      0.104310000000     0.532880000000     0.895990000000     0.0516189  
H251     H      0.118060000000     0.540610000000     0.065010000000     0.040285   
H252     H      0.187720000000     0.476680000000     0.875030000000     0.0263178  
H253     H      0.188420000000     0.581470000000     0.964050000000     0.0529223  
H254     H      0.086660000000     0.454110000000     0.956640000000     0.0535357  
H255     H      0.139680000000     0.494890000000     0.846970000000     0.0385401  
H256     H      0.089170000000     0.611230000000     0.986350000000     0.0268147  
In1      In     0.006600000000     0.405720000000     0.828960000000     2.39988    
In2      In     0.209840000000     0.655400000000     0.106070000000     2.40422    
In3      In     0.407960000000     0.951480000000     0.862900000000     2.40602    
In4      In     0.785660000000     0.133370000000     0.075030000000     2.39913    
In5      In     0.565390000000     0.431980000000     0.313830000000     2.4055     
In6      In     0.679220000000     0.665810000000     0.639530000000     2.40406    
In7      In     0.956120000000     0.901170000000     0.386190000000     2.39963    
In8      In     0.279500000000     0.193110000000     0.554430000000     2.39258    
N1       N      0.049050000000     0.959890000000     0.454400000000    -0.177325   
N2       N      0.182560000000     0.145470000000     0.483180000000    -0.175761   
N3       N      0.876850000000     0.827560000000     0.453500000000    -0.174908   
N4       N      0.768290000000     0.763240000000     0.617710000000    -0.17626    
N5       N      0.378170000000     0.257370000000     0.495260000000    -0.176357   
N6       N      0.441840000000     0.372570000000     0.338160000000    -0.176123   
N7       N      0.628070000000     0.480590000000     0.404670000000    -0.176656   
N8       N      0.607630000000     0.627620000000     0.548870000000    -0.176746   
N9       N      0.850560000000     0.054430000000     0.146830000000    -0.175474   
N10      N      0.873060000000     0.982020000000     0.328650000000    -0.175724   
N11      N      0.698850000000     0.210530000000     0.133310000000    -0.176665   
N12      N      0.672960000000     0.359160000000     0.275410000000    -0.176113   
N13      N      0.351180000000     0.049590000000     0.806580000000    -0.176083   
N14      N      0.326930000000     0.097920000000     0.619280000000    -0.177325   
N15      N      0.593730000000     0.712660000000     0.719130000000    -0.176066   
N16      N      0.491840000000     0.902020000000     0.783460000000    -0.176229   
N17      N      0.698910000000     0.084130000000     0.997340000000    -0.175142   
N18      N      0.480370000000     0.987670000000     0.953590000000    -0.175878   
N19      N      0.020210000000     0.832160000000     0.306440000000    -0.175961   
N20      N      0.099970000000     0.709990000000     0.160390000000    -0.175864   
N21      N      0.314160000000     0.868530000000     0.907060000000    -0.17664    
N22      N      0.306920000000     0.733840000000     0.060360000000    -0.17583    
N23      N      0.294590000000     0.586520000000     0.173260000000    -0.17571    
N24      N      0.516670000000     0.513390000000     0.236790000000    -0.175641   
N25      N      0.226210000000     0.279210000000     0.625280000000    -0.174468   
N26      N      0.050650000000     0.314000000000     0.759400000000    -0.175818   
N27      N      0.902420000000     0.351550000000     0.889510000000    -0.176203   
N28      N      0.893600000000     0.186240000000     0.017530000000    -0.176283   
N29      N      0.747710000000     0.560940000000     0.675260000000    -0.176392   
N30      N      0.946380000000     0.509580000000     0.783580000000    -0.175534   
N31      N      0.123050000000     0.445300000000     0.884750000000    -0.176689   
N32      N      0.134790000000     0.591880000000     0.028780000000    -0.176463   
O1       O      0.961920000000     0.400150000000     0.880700000000    -0.496314   
O2       O      0.946650000000     0.358280000000     0.836950000000    -0.509223   
O3       O      0.998660000000     0.453760000000     0.782790000000    -0.493583   
O4       O      0.070560000000     0.449160000000     0.836640000000    -0.510148   
O5       O      0.052910000000     0.349320000000     0.814320000000    -0.508853   
O6       O      0.059380000000     0.401080000000     0.876050000000    -0.500385   
O7       O      0.955330000000     0.461170000000     0.829870000000    -0.508149   
O8       O      0.004500000000     0.371430000000     0.774140000000    -0.496336   
O9       O      0.154790000000     0.657040000000     0.151860000000    -0.504795   
O10      O      0.156200000000     0.708380000000     0.114720000000    -0.50062    
O11      O      0.251720000000     0.596170000000     0.120330000000    -0.502569   
O12      O      0.166550000000     0.599010000000     0.086420000000    -0.502769   
O13      O      0.271220000000     0.669030000000     0.067170000000    -0.504974   
O14      O      0.178880000000     0.648530000000     0.048640000000    -0.505729   
O15      O      0.253330000000     0.646830000000     0.158270000000    -0.506061   
O16      O      0.246290000000     0.719200000000     0.100560000000    -0.499732   
O17      O      0.419170000000     0.920110000000     0.807480000000    -0.50562    
O18      O      0.480150000000     0.932820000000     0.839750000000    -0.501283   
O19      O      0.345740000000     0.985420000000     0.835770000000    -0.504519   
O20      O      0.376180000000     0.885580000000     0.868880000000    -0.507098   
O21      O      0.460130000000     0.939180000000     0.909400000000    -0.50168    
O22      O      0.345100000000     0.935130000000     0.899620000000    -0.507658   
O23      O      0.412900000000     0.015820000000     0.835500000000    -0.505714   
O24      O      0.428020000000     0.999690000000     0.906430000000    -0.502367   
O25      O      0.751410000000     0.196980000000     0.086680000000    -0.500814   
O26      O      0.734020000000     0.146250000000     0.122030000000    -0.511027   
O27      O      0.759060000000     0.078780000000     0.039800000000    -0.491646   
O28      O      0.835450000000     0.136240000000     0.025850000000    -0.509637   
O29      O      0.791400000000     0.070800000000     0.105710000000    -0.494107   
O30      O      0.844400000000     0.182060000000     0.067580000000    -0.496035   
O31      O      0.725660000000     0.138410000000     0.033610000000    -0.5081     
O32      O      0.843700000000     0.117450000000     0.116140000000    -0.508085   
O33      O      0.578860000000     0.433610000000     0.375350000000    -0.508001   
O34      O      0.613870000000     0.479230000000     0.342660000000    -0.502986   
O35      O      0.516090000000     0.374990000000     0.312010000000    -0.499198   
O36      O      0.539970000000     0.447510000000     0.256190000000    -0.506355   
O37      O      0.628820000000     0.420180000000     0.276450000000    -0.504952   
O38      O      0.542670000000     0.497450000000     0.294870000000    -0.501161   
O39      O      0.491390000000     0.430210000000     0.338860000000    -0.506794   
O40      O      0.609090000000     0.371400000000     0.313160000000    -0.50062    
O41      O      0.625320000000     0.624030000000     0.610230000000    -0.5057     
O42      O      0.661970000000     0.669600000000     0.578570000000    -0.507222   
O43      O      0.666780000000     0.694340000000     0.695930000000    -0.504197   
O44      O      0.733820000000     0.613050000000     0.632690000000    -0.501659   
O45      O      0.693980000000     0.733730000000     0.622620000000    -0.504856   
O46      O      0.692700000000     0.614000000000     0.681330000000    -0.506493   
O47      O      0.606640000000     0.684350000000     0.662010000000    -0.504341   
O48      O      0.753130000000     0.694820000000     0.635180000000    -0.502698   
O49      O      0.975930000000     0.838710000000     0.359080000000    -0.501486   
O50      O      0.999350000000     0.895000000000     0.333620000000    -0.505585   
O51      O      0.891820000000     0.916120000000     0.350680000000    -0.500207   
O52      O      0.886590000000     0.883390000000     0.413980000000    -0.498447   
O53      O      0.031030000000     0.917120000000     0.405510000000    -0.510134   
O54      O      0.947440000000     0.846510000000     0.426260000000    -0.498604   
O55      O      0.937870000000     0.966680000000     0.364620000000    -0.505333   
O56      O      0.973510000000     0.943830000000     0.434820000000    -0.507681   
O57      O      0.316120000000     0.253590000000     0.535910000000    -0.508429   
O58      O      0.341050000000     0.196140000000     0.513520000000    -0.494317   
O59      O      0.268800000000     0.131840000000     0.586250000000    -0.512025   
O60      O      0.276020000000     0.224330000000     0.610390000000    -0.504619   
O61      O      0.259130000000     0.157780000000     0.502310000000    -0.504161   
O62      O      0.229510000000     0.246950000000     0.568920000000    -0.488392   
O63      O      0.337650000000     0.158900000000     0.586170000000    -0.505198   
O64      O      0.203390000000     0.181290000000     0.535520000000    -0.495367   


