data_structure

_audit_creation_method RASPA-1.0
_audit_creation_date 2023-5-22
_audit_author_name 'Poobodin Mano'

_cell_length_a    47.4943
_cell_length_b    34.0571
_cell_length_c    37.5628
_cell_angle_alpha 90.0011
_cell_angle_beta  89.9995
_cell_angle_gamma 89.9998
_cell_volume      60758.5

_symmetry_cell_setting          triclinic
_symmetry_space_group_name_Hall 'P 1'
_symmetry_space_group_name_H-M  'P 1'
_symmetry_Int_Tables_number     1

_symmetry_equiv_pos_as_xyz 'x,y,z'

loop_
_atom_site_label
_atom_site_type_symbol
_atom_site_fract_x
_atom_site_fract_y
_atom_site_fract_z
_atom_site_charge
C1       C      0.336020000000     0.020030000000     0.245950000000     0.406051   
C2       C      0.390620000000     0.054150000000     0.162350000000     0.412501   
C3       C      0.351380000000     0.148200000000     0.231240000000     0.408245   
C4       C      0.417550000000     0.080100000000     0.274890000000     0.409599   
C5       C      0.083600000000     0.031510000000     0.405940000000     0.403797   
C6       C      0.138380000000     0.046680000000     0.491910000000     0.409085   
C7       C      0.127120000000     0.926050000000     0.427860000000     0.407724   
C8       C      0.182040000000     0.016980000000     0.395400000000     0.403909   
C9       C      0.317130000000     0.125650000000     0.760980000000     0.402616   
C10      C      0.263170000000     0.130750000000     0.666830000000     0.412847   
C11      C      0.228690000000     0.173580000000     0.764790000000     0.403211   
C12      C      0.299540000000     0.240720000000     0.714410000000     0.416336   
C13      C      0.071180000000     0.070110000000     0.883840000000     0.410103   
C14      C      0.023660000000     0.034710000000     0.982050000000     0.408455   
C15      C      0.981290000000     0.030250000000     0.879930000000     0.40482    
C16      C      0.052090000000     0.947480000000     0.904000000000     0.408812   
C17      C      0.403240000000     0.581430000000     0.845250000000     0.402852   
C18      C      0.426200000000     0.536670000000     0.730010000000     0.400898   
C19      C      0.478550000000     0.530630000000     0.823410000000     0.407958   
C20      C      0.393330000000     0.460240000000     0.805610000000     0.409214   
C21      C      0.151890000000     0.577810000000     0.909910000000     0.406171   
C22      C      0.178080000000     0.629240000000     0.022880000000     0.404579   
C23      C      0.228430000000     0.626450000000     0.928970000000     0.405793   
C24      C      0.145170000000     0.701630000000     0.944390000000     0.407129   
C25      C      0.070550000000     0.621690000000     0.435410000000     0.406791   
C26      C      0.983780000000     0.602670000000     0.499740000000     0.405654   
C27      C      0.015860000000     0.711310000000     0.465460000000     0.406972   
C28      C      0.990380000000     0.603440000000     0.389320000000     0.407251   
C29      C      0.313160000000     0.527250000000     0.317390000000     0.407287   
C30      C      0.264930000000     0.498910000000     0.208420000000     0.409325   
C31      C      0.291850000000     0.414060000000     0.277640000000     0.404311   
C32      C      0.225890000000     0.513070000000     0.311160000000     0.404983   
C33      C      0.114990000000     0.586950000000     0.449850000000     0.0130061  
C34      C      0.190260000000     0.565030000000     0.319900000000     0.0137331  
C35      C      0.186500000000     0.500830000000     0.353060000000     0.0115933  
C36      C      0.186720000000     0.587440000000     0.354720000000    -0.102016   
C37      C      0.129270000000     0.556940000000     0.425150000000    -0.101651   
C38      C      0.180450000000     0.523040000000     0.387950000000    -0.101978   
C39      C      0.143500000000     0.576800000000     0.393530000000     0.0185293  
C40      C      0.168520000000     0.563580000000     0.379920000000     0.0184866  
C41      C      0.113520000000     0.636810000000     0.400910000000     0.0146497  
C42      C      0.125630000000     0.607420000000     0.374440000000    -0.101793   
C43      C      0.348170000000     0.526900000000     0.366070000000     0.0154026  
C44      C      0.464580000000     0.611320000000     0.332450000000     0.0152799  
C45      C      0.470640000000     0.545500000000     0.358740000000     0.0157605  
C46      C      0.432360000000     0.608870000000     0.334380000000    -0.0997963  
C47      C      0.379270000000     0.523110000000     0.356300000000    -0.100668   
C48      C      0.439250000000     0.539960000000     0.365840000000    -0.0996842  
C49      C      0.391930000000     0.561620000000     0.342600000000     0.0178806  
C50      C      0.420400000000     0.568740000000     0.345400000000     0.017263   
C51      C      0.341910000000     0.586590000000     0.329090000000     0.0150195  
C52      C      0.373210000000     0.587730000000     0.319190000000    -0.100715   
C53      C      0.163800000000     0.597630000000     0.079400000000     0.0156937  
C54      C      0.276160000000     0.532890000000     0.151910000000     0.0154592  
C55      C      0.236900000000     0.485250000000     0.154260000000     0.0158837  
C56      C      0.256840000000     0.566700000000     0.140750000000    -0.10027    
C57      C      0.182890000000     0.564540000000     0.092750000000    -0.0999641  
C58      C      0.215110000000     0.515900000000     0.142980000000    -0.100432   
C59      C      0.211640000000     0.578250000000     0.106750000000     0.0178229  
C60      C      0.227890000000     0.553430000000     0.127170000000     0.0177154  
C61      C      0.202450000000     0.646120000000     0.079040000000     0.0161217  
C62      C      0.224320000000     0.616220000000     0.091660000000    -0.100156   
C63      C      0.977430000000     0.549930000000     0.544130000000     0.0145952  
C64      C      0.415060000000     0.577760000000     0.677770000000     0.011721   
C65      C      0.447510000000     0.518140000000     0.672720000000     0.0136482  
C66      C      0.404620000000     0.570060000000     0.639620000000    -0.102827   
C67      C      0.972810000000     0.554650000000     0.584050000000    -0.102446   
C68      C      0.935170000000     0.510110000000     0.635970000000    -0.102918   
C69      C      0.442420000000     0.565730000000     0.591910000000     0.0197711  
C70      C      0.427340000000     0.548740000000     0.618910000000     0.0195427  
C71      C      0.438230000000     0.597600000000     0.531390000000     0.0135872  
C72      C      0.431690000000     0.601160000000     0.571340000000    -0.102566   
C73      C      0.382260000000     0.647130000000     0.855380000000     0.0150013  
C74      C      0.274670000000     0.593480000000     0.933530000000     0.0141445  
C75      C      0.265810000000     0.643830000000     0.885930000000     0.0139924  
C76      C      0.302540000000     0.613330000000     0.943290000000    -0.102043   
C77      C      0.350930000000     0.650780000000     0.864720000000    -0.0995947  
C78      C      0.293630000000     0.664310000000     0.894630000000    -0.101937   
C79      C      0.341680000000     0.631130000000     0.899590000000     0.0182292  
C80      C      0.314420000000     0.635560000000     0.911360000000     0.0185815  
C81      C      0.391770000000     0.603340000000     0.906310000000     0.0164415  
C82      C      0.360970000000     0.601070000000     0.917600000000    -0.0999473  
C83      C      0.515400000000     0.512000000000     0.866810000000     0.0137563  
C84      C      0.141060000000     0.552610000000     0.849760000000     0.0164861  
C85      C      0.130280000000     0.512030000000     0.902510000000     0.0148837  
C86      C      0.110630000000     0.553730000000     0.836940000000    -0.100095   
C87      C      0.043110000000     0.490590000000     0.859210000000    -0.102132   
C88      C      0.099340000000     0.507040000000     0.891580000000    -0.0998803  
C89      C      0.064400000000     0.518360000000     0.842160000000     0.0185883  
C90      C      0.091120000000     0.524230000000     0.855270000000     0.0182097  
C91      C      0.025740000000     0.560510000000     0.817940000000     0.0140423  
C92      C      0.053140000000     0.539050000000     0.809090000000    -0.102221   
C93      C      0.092780000000     0.903790000000     0.893690000000     0.0145409  
C94      C      0.100550000000     0.738410000000     0.951700000000     0.0121546  
C95      C      0.144770000000     0.772380000000     0.930120000000     0.0137011  
C96      C      0.082910000000     0.761680000000     0.924540000000    -0.102374   
C97      C      0.103450000000     0.873230000000     0.920040000000    -0.102311   
C98      C      0.127740000000     0.792470000000     0.900950000000    -0.102385   
C99      C      0.086070000000     0.835910000000     0.917020000000     0.0192897  
C100     C      0.097970000000     0.799370000000     0.914120000000     0.0191234  
C101     C      0.043800000000     0.875940000000     0.897840000000     0.0134838  
C102     C      0.054520000000     0.842210000000     0.921540000000    -0.102301   
C103     C      0.346950000000     0.426940000000     0.808990000000     0.0145371  
C104     C      0.341260000000     0.281860000000     0.702000000000     0.0159413  
C105     C      0.294760000000     0.313130000000     0.710480000000     0.0148423  
C106     C      0.354410000000     0.303000000000     0.733720000000    -0.100325   
C107     C      0.334680000000     0.404980000000     0.776870000000    -0.100414   
C108     C      0.305620000000     0.339010000000     0.741010000000    -0.100375   
C109     C      0.350440000000     0.367210000000     0.766880000000     0.0171897  
C110     C      0.337720000000     0.339050000000     0.745970000000     0.0169542  
C111     C      0.390890000000     0.387760000000     0.807650000000     0.0153993  
C112     C      0.382160000000     0.365610000000     0.774090000000    -0.100448   
C113     C      0.432330000000     0.054270000000     0.883470000000     0.0137314  
C114     C      0.360080000000     0.085560000000     0.755770000000     0.012746   
C115     C      0.343650000000     0.111460000000     0.815940000000     0.0128872  
C116     C      0.371570000000     0.048550000000     0.774060000000    -0.103099   
C117     C      0.415850000000     0.079700000000     0.857320000000    -0.102239   
C118     C      0.354150000000     0.073510000000     0.833080000000    -0.102604   
C119     C      0.405950000000     0.055480000000     0.825730000000     0.0191351  
C120     C      0.379110000000     0.057900000000     0.812360000000     0.0195797  
C121     C      0.447580000000     0.009820000000     0.833370000000     0.0118288  
C122     C      0.429410000000     0.033180000000     0.806950000000    -0.101863   
C123     C      0.176630000000     0.174780000000     0.765180000000     0.014161   
C124     C      0.118370000000     0.099620000000     0.889250000000     0.0132565  
C125     C      0.090490000000     0.104830000000     0.831560000000     0.0134293  
C126     C      0.130470000000     0.140790000000     0.882770000000    -0.1032     
C127     C      0.157460000000     0.145660000000     0.784340000000    -0.101791   
C128     C      0.102060000000     0.146350000000     0.826590000000    -0.102814   
C129     C      0.155590000000     0.154550000000     0.824060000000     0.0185257  
C130     C      0.131140000000     0.149130000000     0.843070000000     0.0195359  
C131     C      0.203670000000     0.187780000000     0.821170000000     0.0130676  
C132     C      0.183820000000     0.161050000000     0.842530000000    -0.101431   
C133     C      0.130020000000     0.860530000000     0.456310000000     0.0151562  
C134     C      0.008630000000     0.780450000000     0.447990000000     0.0155306  
C135     C      0.033430000000     0.765000000000     0.503910000000     0.0155015  
C136     C      0.034730000000     0.798200000000     0.430460000000    -0.0997191  
C137     C      0.103060000000     0.844280000000     0.473260000000    -0.100322   
C138     C      0.060980000000     0.783830000000     0.491190000000    -0.0997692  
C139     C      0.080200000000     0.832280000000     0.446460000000     0.0175291  
C140     C      0.058560000000     0.807790000000     0.456660000000     0.0172454  
C141     C      0.107440000000     0.867910000000     0.397380000000     0.0156246  
C142     C      0.078700000000     0.854460000000     0.410980000000    -0.100249   
C143     C      0.245860000000     0.070910000000     0.636420000000     0.016716   
C144     C      0.149970000000     0.108890000000     0.522670000000     0.0156025  
C145     C      0.139960000000     0.049160000000     0.557750000000     0.0154795  
C146     C      0.179850000000     0.112780000000     0.537500000000    -0.10001    
C147     C      0.215170000000     0.069290000000     0.624100000000    -0.100971   
C148     C      0.169170000000     0.048920000000     0.574960000000    -0.100063   
C149     C      0.209020000000     0.094680000000     0.591290000000     0.0182714  
C150     C      0.185800000000     0.087230000000     0.570310000000     0.0171883  
C151     C      0.255680000000     0.131100000000     0.601580000000     0.0159729  
C152     C      0.225610000000     0.133030000000     0.587030000000    -0.100671   
C153     C      0.309600000000     0.190840000000     0.238770000000     0.0127987  
C154     C      0.328780000000     0.366090000000     0.261630000000     0.0144564  
C155     C      0.286110000000     0.344940000000     0.296660000000     0.0128896  
C156     C      0.325200000000     0.330980000000     0.236860000000    -0.102602   
C157     C      0.304580000000     0.223880000000     0.265930000000    -0.102334   
C158     C      0.283400000000     0.307710000000     0.273770000000    -0.102348   
C159     C      0.322220000000     0.259850000000     0.256960000000     0.0188832  
C160     C      0.311460000000     0.297170000000     0.256730000000     0.019146   
C161     C      0.356770000000     0.219750000000     0.222670000000     0.0142538  
C162     C      0.353260000000     0.250980000000     0.251400000000    -0.102326   
C163     C      0.010280000000     0.080280000000     0.030400000000     0.0166309  
C164     C      0.410280000000     0.004770000000     0.120730000000     0.0146795  
C165     C      0.399640000000     0.071980000000     0.099560000000     0.0159418  
C166     C      0.441160000000     0.007670000000     0.109180000000    -0.100812   
C167     C      0.979420000000     0.078760000000     0.041770000000    -0.100465   
C168     C      0.930120000000     0.079870000000     0.088700000000    -0.100492   
C169     C      0.971970000000     0.042710000000     0.064360000000     0.0177198  
C170     C      0.447730000000     0.042430000000     0.084530000000     0.0176826  
C171     C      0.018420000000     0.010170000000     0.043810000000     0.0147307  
C172     C      0.488530000000     0.004550000000     0.058340000000    -0.101181   
C173     C      0.234070000000     0.012480000000     0.391710000000     0.012419   
C174     C      0.288570000000     0.991560000000     0.238360000000     0.0188456  
C175     C      0.319330000000     0.967580000000     0.286500000000     0.0154961  
C176     C      0.266770000000     0.008720000000     0.263850000000    -0.101858   
C177     C      0.250070000000     0.986840000000     0.364920000000    -0.0993686  
C178     C      0.298680000000     0.980360000000     0.315710000000    -0.0994729  
C179     C      0.248660000000     0.002340000000     0.326660000000     0.0162502  
C180     C      0.269920000000     0.995080000000     0.302570000000     0.0192719  
C181     C      0.206770000000     0.044810000000     0.343300000000     0.0143036  
C182     C      0.220330000000     0.019150000000     0.314720000000    -0.101115   
C183     C      0.031750000000     0.033540000000     0.410300000000     0.0126388  
C184     C      0.968480000000     0.089460000000     0.284690000000     0.0144709  
C185     C      0.934720000000     0.088070000000     0.336660000000     0.013311   
C186     C      0.988730000000     0.062920000000     0.304930000000    -0.102529   
C187     C      0.008990000000     0.065270000000     0.405310000000    -0.103427   
C188     C      0.955760000000     0.063510000000     0.358450000000    -0.102838   
C189     C      0.007850000000     0.077340000000     0.366520000000     0.019831   
C190     C      0.985530000000     0.069310000000     0.344700000000     0.0200728  
C191     C      0.057490000000     0.059850000000     0.355590000000     0.0138043  
C192     C      0.035740000000     0.092590000000     0.353130000000    -0.103055   
C193     C      0.836020000000     0.020030000000     0.245950000000     0.40623    
C194     C      0.890620000000     0.054150000000     0.162350000000     0.412509   
C195     C      0.851380000000     0.148200000000     0.231240000000     0.408193   
C196     C      0.917550000000     0.080100000000     0.274890000000     0.409603   
C197     C      0.583600000000     0.031510000000     0.405940000000     0.4038     
C198     C      0.638380000000     0.046680000000     0.491910000000     0.409178   
C199     C      0.627120000000     0.926050000000     0.427860000000     0.407722   
C200     C      0.682040000000     0.016980000000     0.395400000000     0.403908   
C201     C      0.817130000000     0.125650000000     0.760980000000     0.402617   
C202     C      0.763170000000     0.130750000000     0.666830000000     0.412847   
C203     C      0.728690000000     0.173580000000     0.764790000000     0.403211   
C204     C      0.799540000000     0.240720000000     0.714410000000     0.416336   
C205     C      0.571180000000     0.070110000000     0.883840000000     0.410099   
C206     C      0.523660000000     0.034710000000     0.982050000000     0.408472   
C207     C      0.481290000000     0.030250000000     0.879930000000     0.404481   
C208     C      0.552090000000     0.947480000000     0.904000000000     0.408486   
C209     C      0.903240000000     0.581430000000     0.845250000000     0.402854   
C210     C      0.926200000000     0.536670000000     0.730010000000     0.400899   
C211     C      0.978550000000     0.530630000000     0.823410000000     0.408197   
C212     C      0.893330000000     0.460240000000     0.805610000000     0.409209   
C213     C      0.651890000000     0.577810000000     0.909910000000     0.406184   
C214     C      0.678090000000     0.629240000000     0.022880000000     0.404582   
C215     C      0.728430000000     0.626450000000     0.928970000000     0.405778   
C216     C      0.645170000000     0.701630000000     0.944390000000     0.40714    
C217     C      0.570550000000     0.621690000000     0.435410000000     0.406795   
C218     C      0.483780000000     0.602670000000     0.499740000000     0.4055     
C219     C      0.515860000000     0.711310000000     0.465460000000     0.406991   
C220     C      0.490380000000     0.603440000000     0.389320000000     0.407175   
C221     C      0.813160000000     0.527250000000     0.317390000000     0.407288   
C222     C      0.764930000000     0.498910000000     0.208420000000     0.409301   
C223     C      0.791850000000     0.414060000000     0.277640000000     0.40431    
C224     C      0.725890000000     0.513070000000     0.311160000000     0.404982   
C225     C      0.614990000000     0.586950000000     0.449850000000     0.013009   
C226     C      0.690260000000     0.565030000000     0.319900000000     0.0137281  
C227     C      0.686500000000     0.500830000000     0.353060000000     0.011568   
C228     C      0.686720000000     0.587440000000     0.354720000000    -0.102006   
C229     C      0.629270000000     0.556940000000     0.425150000000    -0.101658   
C230     C      0.680450000000     0.523040000000     0.387950000000    -0.101905   
C231     C      0.643500000000     0.576800000000     0.393530000000     0.0185432  
C232     C      0.668520000000     0.563580000000     0.379920000000     0.0184654  
C233     C      0.613520000000     0.636810000000     0.400910000000     0.0146531  
C234     C      0.625630000000     0.607420000000     0.374440000000    -0.101801   
C235     C      0.848170000000     0.526900000000     0.366070000000     0.0154044  
C236     C      0.964580000000     0.611320000000     0.332450000000     0.0152943  
C237     C      0.970640000000     0.545500000000     0.358740000000     0.015789   
C238     C      0.932360000000     0.608870000000     0.334380000000    -0.0997378  
C239     C      0.879270000000     0.523110000000     0.356300000000    -0.100667   
C240     C      0.939260000000     0.539960000000     0.365840000000    -0.099621   
C241     C      0.891930000000     0.561620000000     0.342600000000     0.0178793  
C242     C      0.920390000000     0.568740000000     0.345400000000     0.0171953  
C243     C      0.841910000000     0.586590000000     0.329090000000     0.0150506  
C244     C      0.873200000000     0.587730000000     0.319190000000    -0.100694   
C245     C      0.663800000000     0.597630000000     0.079400000000     0.0157002  
C246     C      0.776160000000     0.532890000000     0.151910000000     0.0154045  
C247     C      0.736900000000     0.485250000000     0.154260000000     0.0159481  
C248     C      0.756840000000     0.566700000000     0.140750000000    -0.100253   
C249     C      0.682890000000     0.564540000000     0.092750000000    -0.0999589  
C250     C      0.715110000000     0.515900000000     0.142980000000    -0.100453   
C251     C      0.711640000000     0.578250000000     0.106750000000     0.0178022  
C252     C      0.727890000000     0.553430000000     0.127170000000     0.0177246  
C253     C      0.702450000000     0.646120000000     0.079040000000     0.0160998  
C254     C      0.724310000000     0.616220000000     0.091660000000    -0.100054   
C255     C      0.477430000000     0.549930000000     0.544130000000     0.0143893  
C256     C      0.915060000000     0.577760000000     0.677770000000     0.0116873  
C257     C      0.947510000000     0.518140000000     0.672720000000     0.0135991  
C258     C      0.904620000000     0.570060000000     0.639620000000    -0.102726   
C259     C      0.472810000000     0.554650000000     0.584050000000    -0.102308   
C260     C      0.435170000000     0.510110000000     0.635970000000    -0.103058   
C261     C      0.942420000000     0.565730000000     0.591910000000     0.0198478  
C262     C      0.927340000000     0.548740000000     0.618910000000     0.0194628  
C263     C      0.938230000000     0.597600000000     0.531390000000     0.013617   
C264     C      0.931690000000     0.601160000000     0.571340000000    -0.10263    
C265     C      0.882260000000     0.647130000000     0.855380000000     0.0149983  
C266     C      0.774670000000     0.593480000000     0.933530000000     0.0141606  
C267     C      0.765810000000     0.643830000000     0.885930000000     0.0139788  
C268     C      0.802530000000     0.613330000000     0.943290000000    -0.102      
C269     C      0.850930000000     0.650780000000     0.864720000000    -0.0995802  
C270     C      0.793630000000     0.664310000000     0.894630000000    -0.101913   
C271     C      0.841680000000     0.631130000000     0.899590000000     0.0182361  
C272     C      0.814420000000     0.635560000000     0.911360000000     0.018553   
C273     C      0.891770000000     0.603340000000     0.906310000000     0.0164407  
C274     C      0.860970000000     0.601070000000     0.917600000000    -0.0999499  
C275     C      0.015400000000     0.512000000000     0.866810000000     0.0136     
C276     C      0.641050000000     0.552610000000     0.849760000000     0.0165538  
C277     C      0.630280000000     0.512030000000     0.902510000000     0.0148726  
C278     C      0.610630000000     0.553730000000     0.836940000000    -0.100121   
C279     C      0.543110000000     0.490590000000     0.859210000000    -0.102211   
C280     C      0.599340000000     0.507040000000     0.891580000000    -0.0998267  
C281     C      0.564390000000     0.518360000000     0.842160000000     0.01866    
C282     C      0.591120000000     0.524230000000     0.855270000000     0.0181807  
C283     C      0.525740000000     0.560510000000     0.817940000000     0.0140753  
C284     C      0.553140000000     0.539050000000     0.809090000000    -0.102264   
C285     C      0.592780000000     0.903790000000     0.893690000000     0.0145248  
C286     C      0.600550000000     0.738410000000     0.951700000000     0.012158   
C287     C      0.644770000000     0.772380000000     0.930120000000     0.0137011  
C288     C      0.582910000000     0.761680000000     0.924540000000    -0.102376   
C289     C      0.603450000000     0.873230000000     0.920040000000    -0.102309   
C290     C      0.627740000000     0.792470000000     0.900950000000    -0.102385   
C291     C      0.586070000000     0.835910000000     0.917020000000     0.0193031  
C292     C      0.597970000000     0.799370000000     0.914120000000     0.0191239  
C293     C      0.543800000000     0.875940000000     0.897840000000     0.013425   
C294     C      0.554530000000     0.842210000000     0.921540000000    -0.102232   
C295     C      0.846940000000     0.426940000000     0.808990000000     0.0144222  
C296     C      0.841260000000     0.281860000000     0.702000000000     0.0159299  
C297     C      0.794760000000     0.313130000000     0.710480000000     0.0148416  
C298     C      0.854410000000     0.303000000000     0.733720000000    -0.100323   
C299     C      0.834680000000     0.404980000000     0.776870000000    -0.100365   
C300     C      0.805620000000     0.339010000000     0.741010000000    -0.100377   
C301     C      0.850440000000     0.367210000000     0.766880000000     0.017178   
C302     C      0.837720000000     0.339050000000     0.745970000000     0.0169593  
C303     C      0.890890000000     0.387760000000     0.807650000000     0.0153934  
C304     C      0.882160000000     0.365610000000     0.774090000000    -0.10044    
C305     C      0.932330000000     0.054270000000     0.883470000000     0.0137254  
C306     C      0.860080000000     0.085560000000     0.755770000000     0.0127464  
C307     C      0.843650000000     0.111460000000     0.815940000000     0.0128876  
C308     C      0.871570000000     0.048550000000     0.774060000000    -0.103103   
C309     C      0.915850000000     0.079700000000     0.857320000000    -0.102186   
C310     C      0.854150000000     0.073510000000     0.833080000000    -0.102607   
C311     C      0.905950000000     0.055480000000     0.825730000000     0.0191215  
C312     C      0.879110000000     0.057900000000     0.812360000000     0.0195893  
C313     C      0.947590000000     0.009820000000     0.833370000000     0.0118388  
C314     C      0.929410000000     0.033180000000     0.806950000000    -0.101856   
C315     C      0.676630000000     0.174780000000     0.765180000000     0.0141601  
C316     C      0.618370000000     0.099620000000     0.889250000000     0.0132548  
C317     C      0.590490000000     0.104830000000     0.831560000000     0.0134318  
C318     C      0.630480000000     0.140790000000     0.882770000000    -0.103238   
C319     C      0.657460000000     0.145660000000     0.784340000000    -0.10179    
C320     C      0.602060000000     0.146350000000     0.826590000000    -0.102826   
C321     C      0.655590000000     0.154550000000     0.824060000000     0.0185224  
C322     C      0.631140000000     0.149130000000     0.843070000000     0.0195554  
C323     C      0.703670000000     0.187780000000     0.821170000000     0.0130665  
C324     C      0.683820000000     0.161050000000     0.842530000000    -0.101428   
C325     C      0.630020000000     0.860530000000     0.456310000000     0.0151549  
C326     C      0.508630000000     0.780450000000     0.447990000000     0.0158441  
C327     C      0.533430000000     0.765000000000     0.503910000000     0.0155143  
C328     C      0.534730000000     0.798200000000     0.430460000000    -0.0998212  
C329     C      0.603060000000     0.844280000000     0.473260000000    -0.100318   
C330     C      0.560980000000     0.783830000000     0.491190000000    -0.0997858  
C331     C      0.580200000000     0.832280000000     0.446460000000     0.0175191  
C332     C      0.558560000000     0.807790000000     0.456660000000     0.0172849  
C333     C      0.607440000000     0.867910000000     0.397380000000     0.015624   
C334     C      0.578700000000     0.854460000000     0.410980000000    -0.100247   
C335     C      0.745860000000     0.070910000000     0.636420000000     0.0167158  
C336     C      0.649970000000     0.108890000000     0.522670000000     0.0156058  
C337     C      0.639960000000     0.049160000000     0.557750000000     0.0154863  
C338     C      0.679850000000     0.112780000000     0.537500000000    -0.100011   
C339     C      0.715170000000     0.069290000000     0.624100000000    -0.100971   
C340     C      0.669170000000     0.048920000000     0.574960000000    -0.100064   
C341     C      0.709020000000     0.094680000000     0.591290000000     0.018272   
C342     C      0.685800000000     0.087230000000     0.570310000000     0.0171914  
C343     C      0.755680000000     0.131100000000     0.601580000000     0.0159726  
C344     C      0.725610000000     0.133030000000     0.587030000000    -0.100672   
C345     C      0.809600000000     0.190840000000     0.238770000000     0.0128713  
C346     C      0.828780000000     0.366090000000     0.261630000000     0.0144558  
C347     C      0.786110000000     0.344940000000     0.296660000000     0.0128893  
C348     C      0.825200000000     0.330980000000     0.236860000000    -0.102602   
C349     C      0.804580000000     0.223880000000     0.265930000000    -0.10236    
C350     C      0.783400000000     0.307710000000     0.273770000000    -0.102348   
C351     C      0.822220000000     0.259850000000     0.256960000000     0.018886   
C352     C      0.811460000000     0.297170000000     0.256730000000     0.0191464  
C353     C      0.856770000000     0.219750000000     0.222670000000     0.0141882  
C354     C      0.853260000000     0.250980000000     0.251400000000    -0.102306   
C355     C      0.510280000000     0.080280000000     0.030400000000     0.0167598  
C356     C      0.910280000000     0.004770000000     0.120730000000     0.0146869  
C357     C      0.899640000000     0.071980000000     0.099560000000     0.0159464  
C358     C      0.941160000000     0.007670000000     0.109180000000    -0.100823   
C359     C      0.479420000000     0.078760000000     0.041770000000    -0.100601   
C360     C      0.430120000000     0.079870000000     0.088700000000    -0.10048    
C361     C      0.471970000000     0.042710000000     0.064360000000     0.0177545  
C362     C      0.947730000000     0.042430000000     0.084530000000     0.0177086  
C363     C      0.518420000000     0.010170000000     0.043810000000     0.0148593  
C364     C      0.988530000000     0.004550000000     0.058340000000    -0.101043   
C365     C      0.734070000000     0.012480000000     0.391710000000     0.01242    
C366     C      0.788570000000     0.991560000000     0.238360000000     0.0188644  
C367     C      0.819330000000     0.967580000000     0.286500000000     0.0155041  
C368     C      0.766770000000     0.008720000000     0.263850000000    -0.101867   
C369     C      0.750070000000     0.986840000000     0.364920000000    -0.0993702  
C370     C      0.798680000000     0.980360000000     0.315710000000    -0.0994786  
C371     C      0.748660000000     0.002340000000     0.326660000000     0.0162507  
C372     C      0.769920000000     0.995080000000     0.302570000000     0.0192738  
C373     C      0.706770000000     0.044810000000     0.343300000000     0.0143033  
C374     C      0.720330000000     0.019150000000     0.314720000000    -0.101115   
C375     C      0.531740000000     0.033540000000     0.410300000000     0.0125423  
C376     C      0.468480000000     0.089460000000     0.284690000000     0.0145086  
C377     C      0.434730000000     0.088070000000     0.336660000000     0.0133766  
C378     C      0.488730000000     0.062920000000     0.304930000000    -0.102658   
C379     C      0.508990000000     0.065270000000     0.405310000000    -0.10328    
C380     C      0.455760000000     0.063510000000     0.358450000000    -0.102841   
C381     C      0.507850000000     0.077340000000     0.366520000000     0.0199427  
C382     C      0.485530000000     0.069310000000     0.344700000000     0.0199668  
C383     C      0.557490000000     0.059850000000     0.355590000000     0.013811   
C384     C      0.535740000000     0.092590000000     0.353130000000    -0.103086   
H1       H      0.144610000000     0.540860000000     0.442010000000     0.0445089  
H2       H      0.169270000000     0.561790000000     0.307090000000     0.028009   
H3       H      0.131200000000     0.653680000000     0.412900000000     0.0267382  
H4       H      0.136320000000     0.623880000000     0.353070000000     0.0445762  
H5       H      0.179540000000     0.617750000000     0.349580000000     0.0442628  
H6       H      0.166050000000     0.504230000000     0.403660000000     0.0446217  
H7       H      0.101940000000     0.571000000000     0.469720000000     0.0415583  
H8       H      0.203800000000     0.582480000000     0.301670000000     0.039975   
H9       H      0.107880000000     0.591870000000     0.361260000000     0.054071   
H10      H      0.200320000000     0.526380000000     0.403280000000     0.0509206  
H11      H      0.099790000000     0.657950000000     0.386530000000     0.0389096  
H12      H      0.166010000000     0.492340000000     0.340940000000     0.0295817  
H13      H      0.113330000000     0.535760000000     0.415120000000     0.0519611  
H14      H      0.207830000000     0.590930000000     0.367130000000     0.052776   
H15      H      0.198060000000     0.473330000000     0.359390000000     0.0418053  
H16      H      0.131700000000     0.603020000000     0.464640000000     0.0282572  
H17      H      0.389980000000     0.512620000000     0.380780000000     0.0440868  
H18      H      0.471410000000     0.599680000000     0.306140000000     0.0262826  
H19      H      0.338830000000     0.604840000000     0.353360000000     0.0263706  
H20      H      0.379360000000     0.619090000000     0.320770000000     0.0444148  
H21      H      0.424560000000     0.617300000000     0.307570000000     0.0443121  
H22      H      0.434260000000     0.509140000000     0.358470000000     0.0440923  
H23      H      0.339540000000     0.497330000000     0.372250000000     0.039113   
H24      H      0.471330000000     0.642540000000     0.333910000000     0.0403478  
H25      H      0.375600000000     0.577990000000     0.291110000000     0.0536538  
H26      H      0.435370000000     0.543800000000     0.394830000000     0.0524396  
H27      H      0.329320000000     0.600060000000     0.307330000000     0.0400385  
H28      H      0.975460000000     0.534250000000     0.331590000000     0.0263293  
H29      H      0.381670000000     0.500310000000     0.335340000000     0.0531901  
H30      H      0.424860000000     0.631080000000     0.353890000000     0.0531891  
H31      H      0.983030000000     0.527930000000     0.378160000000     0.0385165  
H32      H      0.346450000000     0.545150000000     0.390550000000     0.0265374  
H33      H      0.170770000000     0.549240000000     0.113880000000     0.0443536  
H34      H      0.284170000000     0.518270000000     0.127430000000     0.0269766  
H35      H      0.192940000000     0.660330000000     0.102860000000     0.0262082  
H36      H      0.237240000000     0.631580000000     0.111990000000     0.0442325  
H37      H      0.268560000000     0.583170000000     0.119980000000     0.0442004  
H38      H      0.201210000000     0.500840000000     0.123540000000     0.0443967  
H39      H      0.146180000000     0.585000000000     0.063640000000     0.0406504  
H40      H      0.294590000000     0.544820000000     0.166610000000     0.0405174  
H41      H      0.238130000000     0.608430000000     0.068830000000     0.0543771  
H42      H      0.202290000000     0.524150000000     0.166580000000     0.0533018  
H43      H      0.213010000000     0.669400000000     0.063150000000     0.0389955  
H44      H      0.245200000000     0.470760000000     0.129860000000     0.0265448  
H45      H      0.186550000000     0.543590000000     0.070530000000     0.0544362  
H46      H      0.253610000000     0.586430000000     0.163970000000     0.0535191  
H47      H      0.226530000000     0.462280000000     0.170710000000     0.0385384  
H48      H      0.154520000000     0.612720000000     0.102920000000     0.0263756  
H49      H      0.980410000000     0.527860000000     0.597550000000     0.0453837  
H50      H      0.431050000000     0.601610000000     0.676880000000     0.0316579  
H51      H      0.423930000000     0.575140000000     0.519730000000     0.0276823  
H52      H      0.408500000000     0.604330000000     0.573220000000     0.0442397  
H53      H      0.398270000000     0.598620000000     0.628130000000     0.044438   
H54      H      0.949300000000     0.491470000000     0.619740000000     0.0442738  
H55      H      0.000090000000     0.543770000000     0.539220000000     0.0421944  
H56      H      0.397060000000     0.588740000000     0.693870000000     0.0416013  
H57      H      0.441670000000     0.628140000000     0.582200000000     0.0522023  
H58      H      0.915710000000     0.492300000000     0.639360000000     0.0513619  
H59      H      0.433370000000     0.626110000000     0.518330000000     0.0393755  
H60      H      0.467880000000     0.533880000000     0.669630000000     0.0303241  
H61      H      0.986500000000     0.578850000000     0.593800000000     0.054955   
H62      H      0.385440000000     0.551390000000     0.640670000000     0.0502496  
H63      H      0.952000000000     0.489490000000     0.685750000000     0.039826   
H64      H      0.965190000000     0.524050000000     0.534790000000     0.0280201  
H65      H      0.346360000000     0.682750000000     0.865770000000     0.0440156  
H66      H      0.279080000000     0.569620000000     0.914070000000     0.0285293  
H67      H      0.401710000000     0.628680000000     0.920200000000     0.0257232  
H68      H      0.360720000000     0.605330000000     0.946930000000     0.0438987  
H69      H      0.316430000000     0.590060000000     0.953920000000     0.0440598  
H70      H      0.301000000000     0.678290000000     0.869750000000     0.0445474  
H71      H      0.385150000000     0.651240000000     0.826240000000     0.0408788  
H72      H      0.265630000000     0.579750000000     0.957830000000     0.0396052  
H73      H      0.353000000000     0.571130000000     0.911410000000     0.0537458  
H74      H      0.289570000000     0.688350000000     0.913970000000     0.0537211  
H75      H      0.402950000000     0.576290000000     0.914970000000     0.0392902  
H76      H      0.269570000000     0.622750000000     0.863810000000     0.0286964  
H77      H      0.338540000000     0.637620000000     0.842610000000     0.0527123  
H78      H      0.298810000000     0.634580000000     0.965250000000     0.0526593  
H79      H      0.250470000000     0.666080000000     0.876290000000     0.0422966  
H80      H      0.393840000000     0.671250000000     0.869000000000     0.0260331  
H81      H      0.050070000000     0.477060000000     0.884460000000     0.0444475  
H82      H      0.151540000000     0.526590000000     0.837680000000     0.0256134  
H83      H      0.030570000000     0.584920000000     0.836660000000     0.0286073  
H84      H      0.067520000000     0.560970000000     0.797230000000     0.0442928  
H85      H      0.111390000000     0.547910000000     0.807850000000     0.0439703  
H86      H      0.095150000000     0.474960000000     0.891940000000     0.0439307  
H87      H      0.499610000000     0.490340000000     0.876410000000     0.0417763  
H88      H      0.152310000000     0.579220000000     0.840180000000     0.038739   
H89      H      0.048920000000     0.516650000000     0.788230000000     0.052956   
H90      H      0.086000000000     0.521230000000     0.912230000000     0.0520931  
H91      H      0.017190000000     0.573680000000     0.793100000000     0.0401891  
H92      H      0.142560000000     0.487210000000     0.891080000000     0.02612    
H93      H      0.038960000000     0.466110000000     0.840360000000     0.0531422  
H94      H      0.102190000000     0.583790000000     0.841430000000     0.0532067  
H95      H      0.132070000000     0.510070000000     0.931980000000     0.0403342  
H96      H      0.519080000000     0.533420000000     0.888670000000     0.0288894  
H97      H      0.126390000000     0.869630000000     0.916680000000     0.0451203  
H98      H      0.099310000000     0.753770000000     0.977780000000     0.0285293  
H99      H      0.043220000000     0.865330000000     0.869840000000     0.0285621  
H100     H      0.042030000000     0.816090000000     0.913800000000     0.0444059  
H101     H      0.062120000000     0.766580000000     0.937080000000     0.0443266  
H102     H      0.138890000000     0.818710000000     0.890970000000     0.0449773  
H103     H      0.105450000000     0.931020000000     0.896730000000     0.0405635  
H104     H      0.090910000000     0.708920000000     0.955270000000     0.0396097  
H105     H      0.050030000000     0.849020000000     0.949910000000     0.0523162  
H106     H      0.126700000000     0.772380000000     0.877640000000     0.0537778  
H107     H      0.021820000000     0.883160000000     0.905660000000     0.0406659  
H108     H      0.146370000000     0.792490000000     0.953370000000     0.0289398  
H109     H      0.100740000000     0.885000000000     0.947440000000     0.0548378  
H110     H      0.079610000000     0.743520000000     0.900310000000     0.051218   
H111     H      0.166430000000     0.766980000000     0.920030000000     0.0419041  
H112     H      0.096090000000     0.892560000000     0.866190000000     0.0279798  
H113     H      0.312400000000     0.398900000000     0.783800000000     0.0437246  
H114     H      0.344400000000     0.300270000000     0.677840000000     0.0267916  
H115     H      0.383410000000     0.370930000000     0.831230000000     0.0273675  
H116     H      0.389570000000     0.334990000000     0.777990000000     0.044145   
H117     H      0.376010000000     0.311280000000     0.725190000000     0.0439623  
H118     H      0.297740000000     0.369050000000     0.735300000000     0.0436373  
H119     H      0.338190000000     0.457210000000     0.809810000000     0.0382971  
H120     H      0.352320000000     0.253500000000     0.697590000000     0.0390242  
H121     H      0.393400000000     0.378310000000     0.750820000000     0.0526268  
H122     H      0.295880000000     0.328760000000     0.766260000000     0.0509866  
H123     H      0.414250000000     0.389200000000     0.809020000000     0.0406269  
H124     H      0.297350000000     0.329620000000     0.685100000000     0.0267768  
H125     H      0.335000000000     0.424890000000     0.753420000000     0.0509748  
H126     H      0.356040000000     0.282100000000     0.756360000000     0.0517961  
H127     H      0.271880000000     0.307550000000     0.714160000000     0.0382834  
H128     H      0.339980000000     0.411610000000     0.833620000000     0.0268831  
H129     H      0.399090000000     0.095240000000     0.872010000000     0.0446024  
H130     H      0.377890000000     0.106150000000     0.751140000000     0.0304451  
H131     H      0.435360000000     0.983780000000     0.842340000000     0.0296335  
H132     H      0.421290000000     0.011140000000     0.787840000000     0.0441836  
H133     H      0.389380000000     0.038080000000     0.757650000000     0.0444578  
H134     H      0.357830000000     0.077620000000     0.861890000000     0.0442937  
H135     H      0.440360000000     0.073300000000     0.905280000000     0.039721   
H136     H      0.351740000000     0.077010000000     0.729200000000     0.04119    
H137     H      0.442820000000     0.054420000000     0.792210000000     0.0517422  
H138     H      0.336930000000     0.051430000000     0.831590000000     0.0520932  
H139     H      0.966500000000     0.998750000000     0.819110000000     0.0415404  
H140     H      0.359880000000     0.134660000000     0.819590000000     0.0289934  
H141     H      0.430060000000     0.103070000000     0.847120000000     0.0535593  
H142     H      0.355190000000     0.025240000000     0.773660000000     0.0512145  
H143     H      0.324300000000     0.121150000000     0.830120000000     0.040318   
H144     H      0.417710000000     0.032470000000     0.895510000000     0.0275413  
H145     H      0.137170000000     0.145550000000     0.770100000000     0.0444694  
H146     H      0.134160000000     0.077560000000     0.880430000000     0.0307297  
H147     H      0.195980000000     0.218530000000     0.823570000000     0.028169   
H148     H      0.181240000000     0.175910000000     0.868580000000     0.0442104  
H149     H      0.151190000000     0.141850000000     0.896130000000     0.0444709  
H150     H      0.100600000000     0.155470000000     0.798450000000     0.0440638  
H151     H      0.178610000000     0.165790000000     0.736830000000     0.0397809  
H152     H      0.115430000000     0.095670000000     0.918400000000     0.0410766  
H153     H      0.194070000000     0.132120000000     0.846940000000     0.0518307  
H154     H      0.087930000000     0.167040000000     0.840940000000     0.0518579  
H155     H      0.224990000000     0.186610000000     0.833340000000     0.0410014  
H156     H      0.103310000000     0.084140000000     0.815360000000     0.0294023  
H157     H      0.166380000000     0.115680000000     0.781230000000     0.0536102  
H158     H      0.116850000000     0.162910000000     0.896080000000     0.0513403  
H159     H      0.068560000000     0.103920000000     0.821200000000     0.0386764  
H160     H      0.166480000000     0.204210000000     0.765780000000     0.0279732  
H161     H      0.109810000000     0.818990000000     0.489820000000     0.0442065  
H162     H      0.997200000000     0.804160000000     0.462380000000     0.0270283  
H163     H      0.119270000000     0.841680000000     0.387960000000     0.0263626  
H164     H      0.069670000000     0.835850000000     0.389550000000     0.0445155  
H165     H      0.027490000000     0.825090000000     0.416430000000     0.0445253  
H166     H      0.068410000000     0.802560000000     0.513500000000     0.0441934  
H167     H      0.142860000000     0.875600000000     0.476950000000     0.0400915  
H168     H      0.994310000000     0.768610000000     0.427170000000     0.0412509  
H169     H      0.064940000000     0.880580000000     0.414490000000     0.0534014  
H170     H      0.076710000000     0.760140000000     0.486810000000     0.0524426  
H171     H      0.104550000000     0.887900000000     0.374270000000     0.0387581  
H172     H      0.020750000000     0.787850000000     0.517760000000     0.0265023  
H173     H      0.094080000000     0.867050000000     0.491170000000     0.05352    
H174     H      0.042880000000     0.777120000000     0.410340000000     0.0542848  
H175     H      0.038120000000     0.741470000000     0.523570000000     0.03846    
H176     H      0.142580000000     0.835360000000     0.446060000000     0.0263337  
H177     H      0.210720000000     0.037810000000     0.618950000000     0.0443412  
H178     H      0.135450000000     0.125730000000     0.540220000000     0.0263511  
H179     H      0.268710000000     0.113680000000     0.582680000000     0.0269683  
H180     H      0.227780000000     0.141460000000     0.558620000000     0.044181   
H181     H      0.182660000000     0.144410000000     0.543740000000     0.0441156  
H182     H      0.165650000000     0.042400000000     0.603580000000     0.0441923  
H183     H      0.247710000000     0.056910000000     0.663060000000     0.0398775  
H184     H      0.149010000000     0.122260000000     0.495690000000     0.0384201  
H185     H      0.214020000000     0.156760000000     0.601100000000     0.0536862  
H186     H      0.181670000000     0.024570000000     0.563170000000     0.0531541  
H187     H      0.264660000000     0.161220000000     0.602720000000     0.0394045  
H188     H      0.125550000000     0.066580000000     0.574960000000     0.0266268  
H189     H      0.201390000000     0.079320000000     0.646230000000     0.0542093  
H190     H      0.195060000000     0.104570000000     0.516260000000     0.0525719  
H191     H      0.131650000000     0.018660000000     0.556530000000     0.0401773  
H192     H      0.258820000000     0.053470000000     0.617460000000     0.0271113  
H193     H      0.281640000000     0.229810000000     0.265350000000     0.0444099  
H194     H      0.343870000000     0.358060000000     0.283080000000     0.0284917  
H195     H      0.349240000000     0.231920000000     0.196890000000     0.0291726  
H196     H      0.366690000000     0.276520000000     0.245160000000     0.0445834  
H197     H      0.345470000000     0.324190000000     0.223880000000     0.0447942  
H198     H      0.275390000000     0.284560000000     0.291860000000     0.0446803  
H199     H      0.299150000000     0.163670000000     0.248520000000     0.04012    
H200     H      0.338050000000     0.390830000000     0.246300000000     0.0399422  
H201     H      0.361780000000     0.239140000000     0.276810000000     0.0529153  
H202     H      0.267520000000     0.312580000000     0.252490000000     0.0520904  
H203     H      0.379540000000     0.212860000000     0.219770000000     0.0403841  
H204     H      0.298070000000     0.337330000000     0.321180000000     0.029608   
H205     H      0.310250000000     0.213440000000     0.293030000000     0.0510018  
H206     H      0.310920000000     0.339680000000     0.214760000000     0.053742   
H207     H      0.264710000000     0.354380000000     0.305080000000     0.0426787  
H208     H      0.299210000000     0.199220000000     0.213330000000     0.0292271  
H209     H      0.975460000000     0.106380000000     0.056670000000     0.0446833  
H210     H      0.397980000000     0.992130000000     0.098260000000     0.0269752  
H211     H      0.032390000000     0.018570000000     0.066350000000     0.0264722  
H212     H      0.490960000000     0.987950000000     0.083590000000     0.0446358  
H213     H      0.446050000000     0.979220000000     0.096170000000     0.0443695  
H214     H      0.928950000000     0.096580000000     0.063360000000     0.0443866  
H215     H      0.013170000000     0.103760000000     0.010150000000     0.0403473  
H216     H      0.408470000000     0.984190000000     0.143590000000     0.0394584  
H217     H      0.476490000000     0.986050000000     0.039290000000     0.0527878  
H218     H      0.940190000000     0.098810000000     0.109160000000     0.0539208  
H219     H      0.526320000000     0.981870000000     0.032930000000     0.0391023  
H220     H      0.388330000000     0.059250000000     0.076310000000     0.0265699  
H221     H      0.965980000000     0.078640000000     0.017540000000     0.0547592  
H222     H      0.454530000000     0.010410000000     0.133350000000     0.053531   
H223     H      0.889220000000     0.100210000000     0.106460000000     0.0397553  
H224     H      0.023260000000     0.088080000000     0.054040000000     0.0267625  
H225     H      0.271910000000     0.985040000000     0.375170000000     0.0438064  
H226     H      0.282820000000     0.960490000000     0.232700000000     0.0256967  
H227     H      0.219480000000     0.072080000000     0.346140000000     0.0283489  
H228     H      0.222120000000     0.038160000000     0.290870000000     0.0447329  
H229     H      0.245830000000     0.000140000000     0.253160000000     0.0446711  
H230     H      0.295940000000     0.954520000000     0.333430000000     0.043875   
H231     H      0.232310000000     0.996490000000     0.417420000000     0.0394464  
H232     H      0.288060000000     0.007900000000     0.212730000000     0.0387727  
H233     H      0.205980000000     0.994400000000     0.308180000000     0.0533335  
H234     H      0.308690000000     0.004350000000     0.331310000000     0.0524043  
H235     H      0.185340000000     0.053500000000     0.334370000000     0.0424462  
H236     H      0.314250000000     0.936830000000     0.278790000000     0.0262084  
H237     H      0.241010000000     0.956760000000     0.365290000000     0.0513673  
H238     H      0.268530000000     0.041280000000     0.263160000000     0.0561699  
H239     H      0.341170000000     0.967750000000     0.297180000000     0.0397491  
H240     H      0.246660000000     0.039500000000     0.396590000000     0.027688   
H241     H      0.988980000000     0.053190000000     0.415700000000     0.044353   
H242     H      0.974880000000     0.120530000000     0.288940000000     0.027872   
H243     H      0.051720000000     0.036090000000     0.336620000000     0.0299975  
H244     H      0.034960000000     0.105380000000     0.326030000000     0.0449955  
H245     H      0.010300000000     0.066940000000     0.294480000000     0.0451509  
H246     H      0.953230000000     0.072940000000     0.386500000000     0.0443307  
H247     H      0.035000000000     0.028890000000     0.439320000000     0.038954   
H248     H      0.970370000000     0.083100000000     0.255760000000     0.0400749  
H249     H      0.042610000000     0.117120000000     0.370650000000     0.0529479  
H250     H      0.950150000000     0.031890000000     0.356550000000     0.0519737  
H251     H      0.078210000000     0.071830000000     0.347100000000     0.0429533  
H252     H      0.937450000000     0.119490000000     0.344000000000     0.0283729  
H253     H      0.014390000000     0.091310000000     0.421790000000     0.0508111  
H254     H      0.983220000000     0.031860000000     0.299030000000     0.0541221  
H255     H      0.413000000000     0.079380000000     0.344370000000     0.0402018  
H256     H      0.023700000000     0.005450000000     0.399120000000     0.0297176  
H257     H      0.644610000000     0.540860000000     0.442010000000     0.0445152  
H258     H      0.669270000000     0.561790000000     0.307090000000     0.0280156  
H259     H      0.631200000000     0.653680000000     0.412900000000     0.0267387  
H260     H      0.636320000000     0.623880000000     0.353070000000     0.044583   
H261     H      0.679540000000     0.617750000000     0.349580000000     0.0442624  
H262     H      0.666050000000     0.504230000000     0.403660000000     0.0446109  
H263     H      0.601940000000     0.571000000000     0.469720000000     0.0415653  
H264     H      0.703800000000     0.582480000000     0.301670000000     0.0399782  
H265     H      0.607880000000     0.591870000000     0.361260000000     0.0540842  
H266     H      0.700330000000     0.526380000000     0.403280000000     0.0508822  
H267     H      0.599790000000     0.657950000000     0.386530000000     0.0389165  
H268     H      0.666010000000     0.492340000000     0.340940000000     0.0295934  
H269     H      0.613330000000     0.535760000000     0.415120000000     0.0519721  
H270     H      0.707830000000     0.590930000000     0.367130000000     0.0527747  
H271     H      0.698060000000     0.473330000000     0.359390000000     0.0418143  
H272     H      0.631700000000     0.603020000000     0.464640000000     0.0282591  
H273     H      0.889980000000     0.512620000000     0.380780000000     0.0440908  
H274     H      0.971420000000     0.599680000000     0.306140000000     0.0262956  
H275     H      0.838830000000     0.604840000000     0.353360000000     0.0263657  
H276     H      0.879360000000     0.619090000000     0.320770000000     0.0444041  
H277     H      0.924550000000     0.617300000000     0.307570000000     0.0442964  
H278     H      0.934260000000     0.509140000000     0.358470000000     0.0440802  
H279     H      0.839540000000     0.497330000000     0.372250000000     0.0391141  
H280     H      0.971330000000     0.642540000000     0.333910000000     0.0403591  
H281     H      0.875600000000     0.577990000000     0.291110000000     0.0536493  
H282     H      0.935370000000     0.543800000000     0.394830000000     0.0524317  
H283     H      0.829320000000     0.600060000000     0.307330000000     0.0400349  
H284     H      0.475460000000     0.534250000000     0.331590000000     0.0263192  
H285     H      0.881670000000     0.500310000000     0.335340000000     0.0531946  
H286     H      0.924860000000     0.631080000000     0.353890000000     0.0531841  
H287     H      0.483030000000     0.527930000000     0.378160000000     0.0384924  
H288     H      0.846440000000     0.545150000000     0.390550000000     0.0265392  
H289     H      0.670770000000     0.549240000000     0.113880000000     0.0443579  
H290     H      0.784170000000     0.518270000000     0.127430000000     0.0269885  
H291     H      0.692940000000     0.660330000000     0.102860000000     0.0262189  
H292     H      0.737240000000     0.631580000000     0.111990000000     0.0441905  
H293     H      0.768560000000     0.583170000000     0.119980000000     0.0441978  
H294     H      0.701210000000     0.500840000000     0.123540000000     0.0444044  
H295     H      0.646180000000     0.585000000000     0.063640000000     0.0406587  
H296     H      0.794590000000     0.544820000000     0.166610000000     0.0405296  
H297     H      0.738130000000     0.608430000000     0.068830000000     0.0543303  
H298     H      0.702290000000     0.524150000000     0.166580000000     0.0533124  
H299     H      0.713010000000     0.669400000000     0.063150000000     0.038999   
H300     H      0.745200000000     0.470760000000     0.129860000000     0.0265288  
H301     H      0.686550000000     0.543590000000     0.070530000000     0.0544362  
H302     H      0.753610000000     0.586430000000     0.163970000000     0.0535183  
H303     H      0.726530000000     0.462280000000     0.170710000000     0.0385272  
H304     H      0.654520000000     0.612720000000     0.102920000000     0.0263831  
H305     H      0.480410000000     0.527860000000     0.597550000000     0.0453286  
H306     H      0.931050000000     0.601610000000     0.676880000000     0.0316759  
H307     H      0.923930000000     0.575140000000     0.519730000000     0.0276786  
H308     H      0.908500000000     0.604330000000     0.573220000000     0.0442559  
H309     H      0.898270000000     0.598620000000     0.628130000000     0.0444163  
H310     H      0.449290000000     0.491470000000     0.619740000000     0.0443103  
H311     H      0.500090000000     0.543770000000     0.539220000000     0.0423266  
H312     H      0.897060000000     0.588740000000     0.693870000000     0.0416133  
H313     H      0.941660000000     0.628140000000     0.582200000000     0.0522354  
H314     H      0.415720000000     0.492300000000     0.639360000000     0.0514064  
H315     H      0.933370000000     0.626110000000     0.518330000000     0.0393764  
H316     H      0.967880000000     0.533880000000     0.669630000000     0.0303514  
H317     H      0.486510000000     0.578850000000     0.593800000000     0.0548766  
H318     H      0.885430000000     0.551390000000     0.640670000000     0.0502013  
H319     H      0.452000000000     0.489490000000     0.685750000000     0.0398     
H320     H      0.465200000000     0.524050000000     0.534790000000     0.0280427  
H321     H      0.846350000000     0.682750000000     0.865770000000     0.0440106  
H322     H      0.779080000000     0.569620000000     0.914070000000     0.0285259  
H323     H      0.901710000000     0.628680000000     0.920200000000     0.0257364  
H324     H      0.860720000000     0.605330000000     0.946930000000     0.0439044  
H325     H      0.816430000000     0.590060000000     0.953920000000     0.044032   
H326     H      0.801000000000     0.678290000000     0.869750000000     0.0445429  
H327     H      0.885150000000     0.651240000000     0.826240000000     0.0408876  
H328     H      0.765630000000     0.579750000000     0.957830000000     0.0395995  
H329     H      0.853000000000     0.571130000000     0.911410000000     0.0537481  
H330     H      0.789560000000     0.688350000000     0.913970000000     0.0537172  
H331     H      0.902950000000     0.576290000000     0.914970000000     0.0393013  
H332     H      0.769570000000     0.622750000000     0.863810000000     0.0287     
H333     H      0.838540000000     0.637620000000     0.842610000000     0.0527088  
H334     H      0.798810000000     0.634580000000     0.965250000000     0.0526557  
H335     H      0.750470000000     0.666080000000     0.876290000000     0.0422957  
H336     H      0.893840000000     0.671250000000     0.869000000000     0.0260478  
H337     H      0.550070000000     0.477060000000     0.884460000000     0.0444835  
H338     H      0.651540000000     0.526590000000     0.837680000000     0.025598   
H339     H      0.530570000000     0.584920000000     0.836660000000     0.0286144  
H340     H      0.567520000000     0.560970000000     0.797230000000     0.0443108  
H341     H      0.611390000000     0.547910000000     0.807850000000     0.0439794  
H342     H      0.595150000000     0.474960000000     0.891940000000     0.0439247  
H343     H      0.999610000000     0.490340000000     0.876410000000     0.0418976  
H344     H      0.652310000000     0.579220000000     0.840180000000     0.0387239  
H345     H      0.548920000000     0.516650000000     0.788230000000     0.0529844  
H346     H      0.585990000000     0.521230000000     0.912230000000     0.0520679  
H347     H      0.517190000000     0.573680000000     0.793100000000     0.0402179  
H348     H      0.642560000000     0.487210000000     0.891080000000     0.0261259  
H349     H      0.538960000000     0.466110000000     0.840360000000     0.0531855  
H350     H      0.602190000000     0.583790000000     0.841430000000     0.0532137  
H351     H      0.632070000000     0.510070000000     0.931980000000     0.0403454  
H352     H      0.019080000000     0.533420000000     0.888670000000     0.028898   
H353     H      0.626390000000     0.869630000000     0.916680000000     0.0451215  
H354     H      0.599310000000     0.753770000000     0.977780000000     0.0285369  
H355     H      0.543230000000     0.865330000000     0.869840000000     0.0285969  
H356     H      0.542030000000     0.816090000000     0.913800000000     0.0443863  
H357     H      0.562120000000     0.766580000000     0.937080000000     0.0443404  
H358     H      0.638890000000     0.818710000000     0.890970000000     0.0449789  
H359     H      0.605450000000     0.931020000000     0.896730000000     0.0405766  
H360     H      0.590910000000     0.708920000000     0.955270000000     0.0396206  
H361     H      0.550030000000     0.849020000000     0.949910000000     0.0523062  
H362     H      0.626700000000     0.772380000000     0.877640000000     0.0537806  
H363     H      0.521820000000     0.883160000000     0.905660000000     0.0407041  
H364     H      0.646370000000     0.792490000000     0.953370000000     0.0289426  
H365     H      0.600740000000     0.885000000000     0.947440000000     0.0548433  
H366     H      0.579610000000     0.743520000000     0.900310000000     0.0512273  
H367     H      0.666430000000     0.766980000000     0.920030000000     0.041906   
H368     H      0.596090000000     0.892560000000     0.866190000000     0.0279885  
H369     H      0.812400000000     0.398900000000     0.783800000000     0.0437148  
H370     H      0.844390000000     0.300270000000     0.677840000000     0.0268052  
H371     H      0.883410000000     0.370930000000     0.831230000000     0.0273761  
H372     H      0.889570000000     0.334990000000     0.777990000000     0.0441505  
H373     H      0.876010000000     0.311280000000     0.725190000000     0.0439691  
H374     H      0.797740000000     0.369050000000     0.735300000000     0.0436387  
H375     H      0.838190000000     0.457210000000     0.809810000000     0.0383311  
H376     H      0.852320000000     0.253500000000     0.697590000000     0.0390328  
H377     H      0.893400000000     0.378310000000     0.750820000000     0.052632   
H378     H      0.795880000000     0.328760000000     0.766260000000     0.050988   
H379     H      0.914250000000     0.389200000000     0.809020000000     0.0406395  
H380     H      0.797350000000     0.329620000000     0.685100000000     0.0267776  
H381     H      0.835000000000     0.424890000000     0.753420000000     0.0509664  
H382     H      0.856040000000     0.282100000000     0.756360000000     0.0517997  
H383     H      0.771880000000     0.307550000000     0.714160000000     0.038285   
H384     H      0.839980000000     0.411610000000     0.833620000000     0.0269182  
H385     H      0.899080000000     0.095240000000     0.872010000000     0.0445739  
H386     H      0.877890000000     0.106150000000     0.751140000000     0.0304521  
H387     H      0.935360000000     0.983780000000     0.842340000000     0.0296504  
H388     H      0.921290000000     0.011140000000     0.787840000000     0.0441922  
H389     H      0.889380000000     0.038080000000     0.757650000000     0.0444662  
H390     H      0.857830000000     0.077620000000     0.861890000000     0.0442963  
H391     H      0.940360000000     0.073300000000     0.905280000000     0.0397336  
H392     H      0.851740000000     0.077010000000     0.729200000000     0.0411944  
H393     H      0.942820000000     0.054420000000     0.792210000000     0.0517565  
H394     H      0.836930000000     0.051430000000     0.831590000000     0.0520956  
H395     H      0.466500000000     0.998750000000     0.819110000000     0.0415064  
H396     H      0.859880000000     0.134660000000     0.819590000000     0.0289974  
H397     H      0.930060000000     0.103070000000     0.847120000000     0.0535607  
H398     H      0.855190000000     0.025240000000     0.773660000000     0.0512189  
H399     H      0.824300000000     0.121150000000     0.830120000000     0.0403192  
H400     H      0.917710000000     0.032470000000     0.895510000000     0.0275505  
H401     H      0.637170000000     0.145550000000     0.770100000000     0.044474   
H402     H      0.634160000000     0.077560000000     0.880430000000     0.0307324  
H403     H      0.695980000000     0.218530000000     0.823570000000     0.0281718  
H404     H      0.681240000000     0.175910000000     0.868580000000     0.0442118  
H405     H      0.651190000000     0.141850000000     0.896130000000     0.044511   
H406     H      0.600600000000     0.155470000000     0.798450000000     0.0440763  
H407     H      0.678610000000     0.165790000000     0.736830000000     0.039784   
H408     H      0.615430000000     0.095670000000     0.918400000000     0.0410804  
H409     H      0.694070000000     0.132120000000     0.846940000000     0.0518308  
H410     H      0.587930000000     0.167040000000     0.840940000000     0.051873   
H411     H      0.724990000000     0.186610000000     0.833340000000     0.0410024  
H412     H      0.603310000000     0.084140000000     0.815360000000     0.0294069  
H413     H      0.666380000000     0.115680000000     0.781230000000     0.0536117  
H414     H      0.616850000000     0.162910000000     0.896080000000     0.0513407  
H415     H      0.568560000000     0.103920000000     0.821200000000     0.0386931  
H416     H      0.666480000000     0.204210000000     0.765780000000     0.0279781  
H417     H      0.609810000000     0.818990000000     0.489820000000     0.0442078  
H418     H      0.497200000000     0.804160000000     0.462380000000     0.0268675  
H419     H      0.619270000000     0.841680000000     0.387960000000     0.0263663  
H420     H      0.569670000000     0.835850000000     0.389550000000     0.0445246  
H421     H      0.527490000000     0.825090000000     0.416430000000     0.0445778  
H422     H      0.568410000000     0.802560000000     0.513500000000     0.0442046  
H423     H      0.642860000000     0.875600000000     0.476950000000     0.0400945  
H424     H      0.494310000000     0.768610000000     0.427170000000     0.0410916  
H425     H      0.564940000000     0.880580000000     0.414490000000     0.0534119  
H426     H      0.576710000000     0.760140000000     0.486810000000     0.0524472  
H427     H      0.604550000000     0.887900000000     0.374270000000     0.0387647  
H428     H      0.520750000000     0.787850000000     0.517760000000     0.026529   
H429     H      0.594080000000     0.867050000000     0.491170000000     0.0535251  
H430     H      0.542880000000     0.777120000000     0.410340000000     0.0543214  
H431     H      0.538120000000     0.741470000000     0.523570000000     0.0384729  
H432     H      0.642580000000     0.835360000000     0.446060000000     0.0263354  
H433     H      0.710720000000     0.037810000000     0.618950000000     0.0443431  
H434     H      0.635450000000     0.125730000000     0.540220000000     0.0263564  
H435     H      0.768710000000     0.113680000000     0.582680000000     0.0269711  
H436     H      0.727780000000     0.141460000000     0.558620000000     0.0441827  
H437     H      0.682660000000     0.144410000000     0.543740000000     0.0441187  
H438     H      0.665650000000     0.042400000000     0.603580000000     0.0441959  
H439     H      0.747710000000     0.056910000000     0.663060000000     0.0398791  
H440     H      0.649010000000     0.122260000000     0.495690000000     0.0384225  
H441     H      0.714020000000     0.156760000000     0.601100000000     0.0536885  
H442     H      0.681670000000     0.024570000000     0.563170000000     0.0531608  
H443     H      0.764660000000     0.161220000000     0.602720000000     0.0394068  
H444     H      0.625550000000     0.066580000000     0.574960000000     0.026631   
H445     H      0.701390000000     0.079320000000     0.646230000000     0.0542114  
H446     H      0.695060000000     0.104570000000     0.516260000000     0.0525746  
H447     H      0.631650000000     0.018660000000     0.556530000000     0.0401803  
H448     H      0.758820000000     0.053470000000     0.617460000000     0.0271139  
H449     H      0.781640000000     0.229810000000     0.265350000000     0.0444168  
H450     H      0.843870000000     0.358060000000     0.283080000000     0.0284962  
H451     H      0.849240000000     0.231920000000     0.196890000000     0.0291919  
H452     H      0.866690000000     0.276520000000     0.245160000000     0.0445848  
H453     H      0.845470000000     0.324190000000     0.223880000000     0.0447984  
H454     H      0.775390000000     0.284560000000     0.291860000000     0.0446821  
H455     H      0.799150000000     0.163670000000     0.248520000000     0.0401043  
H456     H      0.838050000000     0.390830000000     0.246300000000     0.0399462  
H457     H      0.861780000000     0.239140000000     0.276810000000     0.0529135  
H458     H      0.767520000000     0.312580000000     0.252490000000     0.0520924  
H459     H      0.879540000000     0.212860000000     0.219770000000     0.0404013  
H460     H      0.798070000000     0.337330000000     0.321180000000     0.0296103  
H461     H      0.810250000000     0.213440000000     0.293030000000     0.0510085  
H462     H      0.810920000000     0.339680000000     0.214760000000     0.0537439  
H463     H      0.764710000000     0.354380000000     0.305080000000     0.0426808  
H464     H      0.799210000000     0.199220000000     0.213330000000     0.0292135  
H465     H      0.475460000000     0.106380000000     0.056670000000     0.0446837  
H466     H      0.897980000000     0.992130000000     0.098260000000     0.0269783  
H467     H      0.532390000000     0.018570000000     0.066350000000     0.0264721  
H468     H      0.990960000000     0.987950000000     0.083590000000     0.0446384  
H469     H      0.946050000000     0.979220000000     0.096170000000     0.0443818  
H470     H      0.428950000000     0.096580000000     0.063360000000     0.0443778  
H471     H      0.513170000000     0.103760000000     0.010150000000     0.0403526  
H472     H      0.908470000000     0.984190000000     0.143590000000     0.0394643  
H473     H      0.976490000000     0.986050000000     0.039290000000     0.052788   
H474     H      0.440190000000     0.098810000000     0.109160000000     0.0539074  
H475     H      0.026320000000     0.981870000000     0.032930000000     0.0391041  
H476     H      0.888330000000     0.059250000000     0.076310000000     0.0265725  
H477     H      0.465980000000     0.078640000000     0.017540000000     0.0547618  
H478     H      0.954530000000     0.010410000000     0.133350000000     0.0535485  
H479     H      0.389220000000     0.100210000000     0.106460000000     0.039752   
H480     H      0.523260000000     0.088080000000     0.054040000000     0.026766   
H481     H      0.771910000000     0.985040000000     0.375170000000     0.0438082  
H482     H      0.782820000000     0.960490000000     0.232700000000     0.025695   
H483     H      0.719480000000     0.072080000000     0.346140000000     0.0283504  
H484     H      0.722120000000     0.038160000000     0.290870000000     0.0447345  
H485     H      0.745830000000     0.000140000000     0.253160000000     0.0446743  
H486     H      0.795940000000     0.954520000000     0.333430000000     0.0438784  
H487     H      0.732310000000     0.996490000000     0.417420000000     0.0394481  
H488     H      0.788050000000     0.007900000000     0.212730000000     0.0387539  
H489     H      0.705980000000     0.994400000000     0.308180000000     0.0533353  
H490     H      0.808690000000     0.004350000000     0.331310000000     0.0524061  
H491     H      0.685340000000     0.053500000000     0.334370000000     0.0424492  
H492     H      0.814250000000     0.936830000000     0.278790000000     0.0262102  
H493     H      0.741010000000     0.956760000000     0.365290000000     0.0513689  
H494     H      0.768530000000     0.041280000000     0.263160000000     0.0561688  
H495     H      0.841170000000     0.967750000000     0.297180000000     0.0397495  
H496     H      0.746660000000     0.039500000000     0.396590000000     0.0276894  
H497     H      0.488980000000     0.053190000000     0.415700000000     0.0442392  
H498     H      0.474880000000     0.120530000000     0.288940000000     0.0278373  
H499     H      0.551720000000     0.036090000000     0.336620000000     0.0300115  
H500     H      0.534960000000     0.105380000000     0.326030000000     0.0450288  
H501     H      0.510300000000     0.066940000000     0.294480000000     0.0452594  
H502     H      0.453230000000     0.072940000000     0.386500000000     0.0443103  
H503     H      0.535000000000     0.028890000000     0.439320000000     0.0389996  
H504     H      0.470370000000     0.083100000000     0.255760000000     0.0400447  
H505     H      0.542610000000     0.117120000000     0.370650000000     0.0529689  
H506     H      0.450150000000     0.031890000000     0.356550000000     0.0519596  
H507     H      0.578210000000     0.071830000000     0.347100000000     0.042958   
H508     H      0.437450000000     0.119490000000     0.344000000000     0.0283404  
H509     H      0.514390000000     0.091310000000     0.421790000000     0.0508082  
H510     H      0.483220000000     0.031860000000     0.299030000000     0.0541207  
H511     H      0.913000000000     0.079380000000     0.344370000000     0.0402235  
H512     H      0.523700000000     0.005450000000     0.399120000000     0.0297714  
In1      In     0.374170000000     0.075400000000     0.228540000000     2.40312    
In2      In     0.133300000000     0.004920000000     0.431060000000     2.40244    
In3      In     0.277260000000     0.168680000000     0.727200000000     2.3878     
In4      In     0.032000000000     0.021260000000     0.911960000000     2.38951    
In5      In     0.424570000000     0.526460000000     0.801180000000     2.41091    
In6      In     0.174810000000     0.634200000000     0.951420000000     2.4112     
In7      In     0.015240000000     0.634730000000     0.447480000000     2.41436    
In8      In     0.273710000000     0.488940000000     0.278790000000     2.41403    
In9      In     0.874170000000     0.075400000000     0.228540000000     2.40335    
In10     In     0.633300000000     0.004920000000     0.431060000000     2.40246    
In11     In     0.777260000000     0.168680000000     0.727200000000     2.3878     
In12     In     0.532000000000     0.021260000000     0.911960000000     2.38951    
In13     In     0.924570000000     0.526460000000     0.801180000000     2.41093    
In14     In     0.674800000000     0.634200000000     0.951420000000     2.41118    
In15     In     0.515240000000     0.634730000000     0.447480000000     2.41455    
In16     In     0.773710000000     0.488940000000     0.278790000000     2.41403    
N1       N      0.201910000000     0.525810000000     0.327530000000    -0.175859   
N2       N      0.098500000000     0.615450000000     0.429110000000    -0.176308   
N3       N      0.477140000000     0.587380000000     0.360590000000    -0.176536   
N4       N      0.333170000000     0.546260000000     0.336910000000    -0.176838   
N5       N      0.260130000000     0.504510000000     0.172970000000    -0.176163   
N6       N      0.180460000000     0.625810000000     0.058940000000    -0.175214   
N7       N      0.428160000000     0.542650000000     0.694130000000    -0.174029   
N8       N      0.967530000000     0.585160000000     0.525200000000    -0.17522    
N9       N      0.255400000000     0.622040000000     0.917110000000    -0.175283   
N10      N      0.393270000000     0.609500000000     0.867870000000    -0.175309   
N11      N      0.141530000000     0.548880000000     0.888500000000    -0.176414   
N12      N      0.005690000000     0.533460000000     0.835050000000    -0.175968   
N13      N      0.130470000000     0.735920000000     0.941140000000    -0.17609    
N14      N      0.062510000000     0.910420000000     0.899550000000    -0.175574   
N15      N      0.311120000000     0.276790000000     0.708430000000    -0.178224   
N16      N      0.377760000000     0.426630000000     0.807650000000    -0.176737   
N17      N      0.338550000000     0.105930000000     0.777460000000    -0.174671   
N18      N      0.455130000000     0.033220000000     0.864960000000    -0.175146   
N19      N      0.091930000000     0.092880000000     0.869320000000    -0.175841   
N20      N      0.204030000000     0.177050000000     0.783280000000    -0.175014   
N21      N      0.017590000000     0.750340000000     0.473290000000    -0.175599   
N22      N      0.122860000000     0.886460000000     0.426600000000    -0.176698   
N23      N      0.141630000000     0.067560000000     0.522640000000    -0.176541   
N24      N      0.255710000000     0.111640000000     0.636320000000    -0.175512   
N25      N      0.301450000000     0.376260000000     0.277720000000    -0.174225   
N26      N      0.339870000000     0.184940000000     0.231860000000    -0.175998   
N27      N      0.399220000000     0.043840000000     0.128980000000    -0.176877   
N28      N      0.018700000000     0.041610000000     0.017270000000    -0.175903   
N29      N      0.316210000000     0.992950000000     0.255350000000    -0.175211   
N30      N      0.206520000000     0.023860000000     0.377400000000    -0.175526   
N31      N      0.939560000000     0.083990000000     0.298030000000    -0.176011   
N32      N      0.058440000000     0.043450000000     0.392010000000    -0.174378   
N33      N      0.701910000000     0.525810000000     0.327530000000    -0.175854   
N34      N      0.598500000000     0.615450000000     0.429110000000    -0.176307   
N35      N      0.977130000000     0.587380000000     0.360590000000    -0.176511   
N36      N      0.833170000000     0.546260000000     0.336910000000    -0.176843   
N37      N      0.760120000000     0.504510000000     0.172970000000    -0.176148   
N38      N      0.680460000000     0.625810000000     0.058940000000    -0.175218   
N39      N      0.928160000000     0.542650000000     0.694130000000    -0.174014   
N40      N      0.467530000000     0.585160000000     0.525200000000    -0.17518    
N41      N      0.755400000000     0.622040000000     0.917110000000    -0.175287   
N42      N      0.893270000000     0.609500000000     0.867870000000    -0.175305   
N43      N      0.641530000000     0.548880000000     0.888500000000    -0.176423   
N44      N      0.505700000000     0.533460000000     0.835050000000    -0.175838   
N45      N      0.630470000000     0.735920000000     0.941140000000    -0.176088   
N46      N      0.562510000000     0.910420000000     0.899550000000    -0.175498   
N47      N      0.811120000000     0.276790000000     0.708430000000    -0.178223   
N48      N      0.877760000000     0.426630000000     0.807650000000    -0.17671    
N49      N      0.838550000000     0.105930000000     0.777460000000    -0.174671   
N50      N      0.955130000000     0.033220000000     0.864960000000    -0.175187   
N51      N      0.591930000000     0.092880000000     0.869320000000    -0.175838   
N52      N      0.704030000000     0.177050000000     0.783280000000    -0.175013   
N53      N      0.517590000000     0.750340000000     0.473290000000    -0.175624   
N54      N      0.622860000000     0.886460000000     0.426600000000    -0.176696   
N55      N      0.641630000000     0.067560000000     0.522640000000    -0.176557   
N56      N      0.755710000000     0.111640000000     0.636320000000    -0.175512   
N57      N      0.801450000000     0.376260000000     0.277720000000    -0.174224   
N58      N      0.839860000000     0.184940000000     0.231860000000    -0.175966   
N59      N      0.899220000000     0.043840000000     0.128980000000    -0.176878   
N60      N      0.518700000000     0.041610000000     0.017270000000    -0.175917   
N61      N      0.816210000000     0.992950000000     0.255350000000    -0.17525    
N62      N      0.706520000000     0.023860000000     0.377400000000    -0.175525   
N63      N      0.439560000000     0.083990000000     0.298030000000    -0.176028   
N64      N      0.558440000000     0.043450000000     0.392010000000    -0.174361   
O1       O      0.420980000000     0.076920000000     0.241720000000    -0.510114   
O2       O      0.392180000000     0.080300000000     0.284870000000    -0.502396   
O3       O      0.392020000000     0.031100000000     0.188580000000    -0.506158   
O4       O      0.332290000000     0.044060000000     0.220790000000    -0.502193   
O5       O      0.376840000000     0.142100000000     0.223570000000    -0.504975   
O6       O      0.359120000000     0.023660000000     0.262270000000    -0.499569   
O7       O      0.380920000000     0.087690000000     0.169460000000    -0.507729   
O8       O      0.337360000000     0.117620000000     0.237810000000    -0.500926   
O9       O      0.158430000000     0.028050000000     0.383890000000    -0.494624   
O10      O      0.181210000000     0.999420000000     0.424960000000    -0.507787   
O11      O      0.141730000000     0.061760000000     0.461540000000    -0.513638   
O12      O      0.085600000000     0.013710000000     0.435340000000    -0.505733   
O13      O      0.119750000000     0.948640000000     0.402990000000    -0.513308   
O14      O      0.106620000000     0.036300000000     0.389750000000    -0.492481   
O15      O      0.132260000000     0.010640000000     0.491660000000    -0.500246   
O16      O      0.138020000000     0.943060000000     0.454310000000    -0.496737   
O17      O      0.313850000000     0.209650000000     0.713890000000    -0.512439   
O18      O      0.273820000000     0.235750000000     0.721220000000    -0.508116   
O19      O      0.262730000000     0.114320000000     0.696990000000    -0.497926   
O20      O      0.313660000000     0.124970000000     0.727710000000    -0.499059   
O21      O      0.252570000000     0.177740000000     0.779080000000    -0.49097    
O22      O      0.299980000000     0.147300000000     0.777530000000    -0.493502   
O23      O      0.270740000000     0.166320000000     0.667110000000    -0.506176   
O24      O      0.229370000000     0.166650000000     0.731840000000    -0.503465   
O25      O      0.067630000000     0.977490000000     0.903770000000    -0.50784    
O26      O      0.026220000000     0.954520000000     0.908450000000    -0.494245   
O27      O      0.023380000000     0.061700000000     0.959060000000    -0.497009   
O28      O      0.072610000000     0.056780000000     0.915080000000    -0.502636   
O29      O      0.000720000000     0.009620000000     0.866650000000    -0.496659   
O30      O      0.049590000000     0.059500000000     0.866740000000    -0.506018   
O31      O      0.028300000000     0.000810000000     0.969820000000    -0.504935   
O32      O      0.987650000000     0.046920000000     0.908790000000    -0.504065   
O33      O      0.382380000000     0.493960000000     0.804220000000    -0.513393   
O34      O      0.419860000000     0.459980000000     0.804800000000    -0.505428   
O35      O      0.411840000000     0.558560000000     0.750220000000    -0.492445   
O36      O      0.404570000000     0.586340000000     0.811980000000    -0.493716   
O37      O      0.460930000000     0.507350000000     0.837050000000    -0.497295   
O38      O      0.412040000000     0.548600000000     0.856090000000    -0.509175   
O39      O      0.439360000000     0.509510000000     0.745710000000    -0.507799   
O40      O      0.469020000000     0.551460000000     0.798420000000    -0.511246   
O41      O      0.133840000000     0.669710000000     0.953590000000    -0.512823   
O42      O      0.171280000000     0.699460000000     0.938710000000    -0.502749   
O43      O      0.160850000000     0.609130000000     0.004890000000    -0.4963     
O44      O      0.153870000000     0.574250000000     0.943240000000    -0.496928   
O45      O      0.211690000000     0.651350000000     0.915920000000    -0.49528    
O46      O      0.160700000000     0.610040000000     0.897780000000    -0.513833   
O47      O      0.193450000000     0.652070000000     0.004880000000    -0.507606   
O48      O      0.218210000000     0.605670000000     0.953610000000    -0.50792    
O49      O      0.000520000000     0.582810000000     0.414030000000    -0.515658   
O50      O      0.992830000000     0.639990000000     0.393700000000    -0.494747   
O51      O      0.008700000000     0.591920000000     0.493270000000    -0.497528   
O52      O      0.057370000000     0.605260000000     0.460460000000    -0.495858   
O53      O      0.003890000000     0.698740000000     0.437700000000    -0.498102   
O54      O      0.055870000000     0.644410000000     0.416540000000    -0.517134   
O55      O      0.974830000000     0.630190000000     0.480240000000    -0.510949   
O56      O      0.027030000000     0.685160000000     0.484660000000    -0.511858   
O57      O      0.239470000000     0.534120000000     0.289580000000    -0.515521   
O58      O      0.236300000000     0.479500000000     0.316440000000    -0.495898   
O59      O      0.284800000000     0.515590000000     0.224840000000    -0.499915   
O60      O      0.301840000000     0.542120000000     0.290180000000    -0.497895   
O61      O      0.268950000000     0.424030000000     0.292250000000    -0.493642   
O62      O      0.304660000000     0.493250000000     0.325040000000    -0.513611   
O63      O      0.249600000000     0.477060000000     0.227410000000    -0.513747   
O64      O      0.305410000000     0.441860000000     0.263400000000    -0.509858   
O65      O      0.920980000000     0.076920000000     0.241720000000    -0.510131   
O66      O      0.892180000000     0.080300000000     0.284870000000    -0.502415   
O67      O      0.892020000000     0.031100000000     0.188580000000    -0.50616    
O68      O      0.832300000000     0.044060000000     0.220790000000    -0.502419   
O69      O      0.876840000000     0.142100000000     0.223570000000    -0.504983   
O70      O      0.859120000000     0.023660000000     0.262270000000    -0.499609   
O71      O      0.880920000000     0.087690000000     0.169460000000    -0.507741   
O72      O      0.837360000000     0.117620000000     0.237810000000    -0.500918   
O73      O      0.658430000000     0.028050000000     0.383890000000    -0.494622   
O74      O      0.681210000000     0.999420000000     0.424960000000    -0.507779   
O75      O      0.641730000000     0.061760000000     0.461540000000    -0.51366    
O76      O      0.585600000000     0.013710000000     0.435340000000    -0.50574    
O77      O      0.619750000000     0.948640000000     0.402990000000    -0.513306   
O78      O      0.606620000000     0.036300000000     0.389750000000    -0.492481   
O79      O      0.632270000000     0.010640000000     0.491660000000    -0.500301   
O80      O      0.638020000000     0.943060000000     0.454310000000    -0.49673    
O81      O      0.813850000000     0.209650000000     0.713890000000    -0.512437   
O82      O      0.773820000000     0.235750000000     0.721220000000    -0.508115   
O83      O      0.762730000000     0.114320000000     0.696990000000    -0.497925   
O84      O      0.813660000000     0.124970000000     0.727710000000    -0.499057   
O85      O      0.752570000000     0.177740000000     0.779080000000    -0.49097    
O86      O      0.799980000000     0.147300000000     0.777530000000    -0.493502   
O87      O      0.770740000000     0.166320000000     0.667110000000    -0.506174   
O88      O      0.729370000000     0.166650000000     0.731840000000    -0.503464   
O89      O      0.567640000000     0.977490000000     0.903770000000    -0.507555   
O90      O      0.526220000000     0.954520000000     0.908450000000    -0.49415    
O91      O      0.523380000000     0.061700000000     0.959060000000    -0.496979   
O92      O      0.572610000000     0.056780000000     0.915080000000    -0.50264    
O93      O      0.500730000000     0.009620000000     0.866650000000    -0.496491   
O94      O      0.549590000000     0.059500000000     0.866740000000    -0.505983   
O95      O      0.528300000000     0.000810000000     0.969820000000    -0.504926   
O96      O      0.487650000000     0.046920000000     0.908790000000    -0.504035   
O97      O      0.882380000000     0.493960000000     0.804220000000    -0.513391   
O98      O      0.919860000000     0.459980000000     0.804800000000    -0.505417   
O99      O      0.911840000000     0.558560000000     0.750220000000    -0.492441   
O100     O      0.904570000000     0.586340000000     0.811980000000    -0.49371    
O101     O      0.960930000000     0.507350000000     0.837050000000    -0.497332   
O102     O      0.912040000000     0.548600000000     0.856090000000    -0.509168   
O103     O      0.939360000000     0.509510000000     0.745710000000    -0.507786   
O104     O      0.969020000000     0.551460000000     0.798420000000    -0.511269   
O105     O      0.633840000000     0.669710000000     0.953590000000    -0.512976   
O106     O      0.671280000000     0.699460000000     0.938710000000    -0.502751   
O107     O      0.660850000000     0.609130000000     0.004890000000    -0.496273   
O108     O      0.653870000000     0.574250000000     0.943240000000    -0.497005   
O109     O      0.711690000000     0.651350000000     0.915920000000    -0.495139   
O110     O      0.660700000000     0.610040000000     0.897780000000    -0.513887   
O111     O      0.693450000000     0.652070000000     0.004880000000    -0.507599   
O112     O      0.718210000000     0.605670000000     0.953610000000    -0.507756   
O113     O      0.500520000000     0.582810000000     0.414030000000    -0.515544   
O114     O      0.492830000000     0.639990000000     0.393700000000    -0.494813   
O115     O      0.508700000000     0.591920000000     0.493270000000    -0.497423   
O116     O      0.557370000000     0.605260000000     0.460460000000    -0.495868   
O117     O      0.503890000000     0.698740000000     0.437700000000    -0.498065   
O118     O      0.555870000000     0.644410000000     0.416540000000    -0.517134   
O119     O      0.474830000000     0.630190000000     0.480240000000    -0.510987   
O120     O      0.527030000000     0.685160000000     0.484660000000    -0.511857   
O121     O      0.739470000000     0.534120000000     0.289580000000    -0.515519   
O122     O      0.736300000000     0.479500000000     0.316440000000    -0.495896   
O123     O      0.784800000000     0.515590000000     0.224840000000    -0.499911   
O124     O      0.801840000000     0.542120000000     0.290180000000    -0.497894   
O125     O      0.768950000000     0.424030000000     0.292250000000    -0.49364    
O126     O      0.804660000000     0.493250000000     0.325040000000    -0.51361    
O127     O      0.749600000000     0.477060000000     0.227410000000    -0.513736   
O128     O      0.805410000000     0.441860000000     0.263400000000    -0.509857   


