data_structure

_audit_creation_method RASPA-1.0
_audit_creation_date 2023-5-22
_audit_author_name 'Poobodin Mano'

_cell_length_a    29.3319
_cell_length_b    30.0591
_cell_length_c    60.5092
_cell_angle_alpha 89.9424
_cell_angle_beta  90.2349
_cell_angle_gamma 90.1594
_cell_volume      53349.7

_symmetry_cell_setting          triclinic
_symmetry_space_group_name_Hall 'P 1'
_symmetry_space_group_name_H-M  'P 1'
_symmetry_Int_Tables_number     1

_symmetry_equiv_pos_as_xyz 'x,y,z'

loop_
_atom_site_label
_atom_site_type_symbol
_atom_site_fract_x
_atom_site_fract_y
_atom_site_fract_z
_atom_site_charge
C1       C      0.089290000000     0.260130000000     0.935030000000     0.403106   
C2       C      0.031720000000     0.362350000000     0.393950000000     0.40356    
C3       C      0.021680000000     0.359410000000     0.971580000000     0.404862   
C4       C      0.138040000000     0.408750000000     0.934080000000     0.410855   
C5       C      0.142950000000     0.320610000000     0.144930000000     0.408186   
C6       C      0.124370000000     0.467170000000     0.128350000000     0.407521   
C7       C      0.063620000000     0.397780000000     0.186460000000     0.399056   
C8       C      0.216560000000     0.423920000000     0.181550000000     0.410622   
C9       C      0.815450000000     0.637350000000     0.003280000000     0.402391   
C10      C      0.922100000000     0.542820000000     0.016740000000     0.414264   
C11      C      0.856040000000     0.545280000000     0.949390000000     0.399894   
C12      C      0.938600000000     0.659880000000     0.968730000000     0.416608   
C13      C      0.880570000000     0.646840000000     0.234900000000     0.404256   
C14      C      0.981860000000     0.548730000000     0.268300000000     0.402014   
C15      C      0.930520000000     0.540730000000     0.198440000000     0.407193   
C16      C      0.030840000000     0.645850000000     0.227120000000     0.409099   
C17      C      0.855810000000     0.085290000000     0.110970000000     0.413723   
C18      C      0.768280000000     0.206900000000     0.128490000000     0.402238   
C19      C      0.849230000000     0.201400000000     0.070320000000     0.407548   
C20      C      0.725350000000     0.110600000000     0.078430000000     0.404543   
C21      C      0.868440000000     0.153570000000     0.329430000000     0.410422   
C22      C      0.839020000000     0.265080000000     0.373470000000     0.40033    
C23      C      0.902720000000     0.300560000000     0.313260000000     0.409686   
C24      C      0.766390000000     0.245670000000     0.307020000000     0.410553   
C25      C      0.707000000000     0.455180000000     0.066470000000     0.414146   
C26      C      0.774160000000     0.398870000000     0.010440000000     0.401905   
C27      C      0.839820000000     0.381830000000     0.079920000000     0.395598   
C28      C      0.733340000000     0.303830000000     0.059000000000     0.407242   
C29      C      0.700680000000     0.486180000000     0.267780000000     0.40916    
C30      C      0.783480000000     0.367420000000     0.254280000000     0.400593   
C31      C      0.750430000000     0.393800000000     0.321420000000     0.416662   
C32      C      0.637250000000     0.357670000000     0.271600000000     0.410888   
C33      C      0.498620000000     0.620050000000     0.986100000000     0.405101   
C34      C      0.384470000000     0.708970000000     0.988700000000     0.409163   
C35      C      0.490160000000     0.710940000000     0.931320000000     0.405106   
C36      C      0.380460000000     0.616310000000     0.934840000000     0.406676   
C37      C      0.404610000000     0.668730000000     0.205970000000     0.403201   
C38      C      0.445160000000     0.795250000000     0.177420000000     0.411581   
C39      C      0.419700000000     0.790140000000     0.247830000000     0.402562   
C40      C      0.540540000000     0.721270000000     0.224450000000     0.410244   
C41      C      0.520130000000     0.920500000000     0.014450000000     0.405742   
C42      C      0.513720000000     0.778670000000     0.035370000000     0.416917   
C43      C      0.429730000000     0.842520000000     0.977910000000     0.408679   
C44      C      0.576470000000     0.807650000000     0.974710000000     0.398075   
C45      C      0.621150000000     0.003080000000     0.278580000000     0.40112    
C46      C      0.531610000000     0.884170000000     0.303530000000     0.400049   
C47      C      0.513860000000     0.936310000000     0.241740000000     0.410113   
C48      C      0.656230000000     0.873630000000     0.265310000000     0.40742    
C49      C      0.458290000000     0.169490000000     0.061370000000     0.394119   
C50      C      0.394940000000     0.039100000000     0.042980000000     0.391886   
C51      C      0.464770000000     0.064670000000     0.106810000000     0.405989   
C52      C      0.324210000000     0.124340000000     0.086710000000     0.416458   
C53      C      0.289200000000     0.111270000000     0.362970000000     0.402726   
C54      C      0.405310000000     0.037330000000     0.368590000000     0.406226   
C55      C      0.328960000000     0.065210000000     0.299770000000     0.407286   
C56      C      0.428100000000     0.150660000000     0.326880000000     0.406848   
C57      C      0.113160000000     0.980460000000     0.875030000000     0.405392   
C58      C      0.255860000000     0.912480000000     0.365410000000     0.398048   
C59      C      0.205050000000     0.972620000000     0.927720000000     0.410957   
C60      C      0.144900000000     0.846630000000     0.893520000000     0.405016   
C61      C      0.153630000000     0.012380000000     0.120950000000     0.404232   
C62      C      0.244550000000     0.895840000000     0.102180000000     0.399927   
C63      C      0.280360000000     0.961820000000     0.158950000000     0.410276   
C64      C      0.139400000000     0.896140000000     0.155070000000     0.404315   
C65      C      0.303550000000     0.083490000000     0.261720000000     0.0142554  
C66      C      0.336600000000     0.938900000000     0.187180000000     0.0164563  
C67      C      0.338110000000     0.015410000000     0.172670000000     0.0145169  
C68      C      0.323710000000     0.953230000000     0.210520000000    -0.0994768  
C69      C      0.330290000000     0.069030000000     0.241230000000    -0.101      
C70      C      0.327360000000     0.035970000000     0.195230000000    -0.0988097  
C71      C      0.325100000000     0.019360000000     0.236120000000     0.0172267  
C72      C      0.328000000000     0.003410000000     0.214830000000     0.0157997  
C73      C      0.298600000000     0.005740000000     0.275530000000     0.0160153  
C74      C      0.325790000000     0.987850000000     0.256000000000    -0.101869   
C75      C      0.199900000000     0.981660000000     0.968280000000     0.0157076  
C76      C      0.400950000000     0.019380000000     0.003580000000     0.0139269  
C77      C      0.357540000000     0.970890000000     0.028830000000     0.0121006  
C78      C      0.358830000000     0.033720000000     0.990560000000    -0.0987229  
C79      C      0.242140000000     0.970860000000     0.982130000000    -0.100132   
C80      C      0.312680000000     0.978790000000     0.016350000000    -0.0986501  
C81      C      0.281670000000     0.003940000000     0.979440000000     0.0160076  
C82      C      0.317540000000     0.003210000000     0.994150000000     0.0146727  
C83      C      0.240200000000     0.038000000000     0.945900000000     0.0160206  
C84      C      0.285340000000     0.031160000000     0.958040000000    -0.10074    
C85      C      0.503130000000     0.073560000000     0.142930000000     0.0151593  
C86      C      0.469680000000     0.911960000000     0.208920000000     0.0168353  
C87      C      0.454480000000     0.984980000000     0.225910000000     0.0153643  
C88      C      0.481020000000     0.933030000000     0.186490000000    -0.0997268  
C89      C      0.476800000000     0.055020000000     0.162630000000    -0.0995256  
C90      C      0.469940000000     0.011470000000     0.205770000000    -0.0990548  
C91      C      0.480640000000     0.004350000000     0.164620000000     0.0166285  
C92      C      0.474870000000     0.983610000000     0.184730000000     0.0171831  
C93      C      0.505180000000     0.000870000000     0.123780000000     0.0141637  
C94      C      0.481720000000     0.977160000000     0.143140000000    -0.0998881  
C95      C      0.361220000000     0.886520000000     0.969310000000     0.0156657  
C96      C      0.437870000000     0.964470000000     0.879460000000     0.0143057  
C97      C      0.423010000000     0.022060000000     0.907770000000     0.0146191  
C98      C      0.405190000000     0.931530000000     0.890630000000    -0.102563   
C99      C      0.375200000000     0.924990000000     0.954230000000    -0.0999474  
C100     C      0.388070000000     0.992850000000     0.919630000000    -0.101115   
C101     C      0.387650000000     0.911300000000     0.930580000000     0.016581   
C102     C      0.395630000000     0.943460000000     0.914830000000     0.0174659  
C103     C      0.386700000000     0.828970000000     0.943440000000     0.0152105  
C104     C      0.400470000000     0.862880000000     0.925760000000    -0.098969   
C105     C      0.304940000000     0.934170000000     0.334360000000     0.0179977  
C106     C      0.383910000000     0.787600000000     0.284260000000     0.0155453  
C107     C      0.413920000000     0.860760000000     0.268070000000     0.0142678  
C108     C      0.347450000000     0.813750000000     0.296480000000    -0.104555   
C109     C      0.354140000000     0.927430000000     0.326430000000    -0.106524   
C110     C      0.377850000000     0.886290000000     0.281240000000    -0.104604   
C111     C      0.361860000000     0.878540000000     0.322260000000     0.0202564  
C112     C      0.363870000000     0.860370000000     0.301570000000     0.0218048  
C113     C      0.307150000000     0.855350000000     0.351070000000     0.0120658  
C114     C      0.356210000000     0.851420000000     0.343030000000    -0.103119   
C115     C      0.553850000000     0.754150000000     0.069080000000     0.0174986  
C116     C      0.406790000000     0.809520000000     0.141740000000     0.0141616  
C117     C      0.483210000000     0.840480000000     0.148970000000     0.0161311  
C118     C      0.424310000000     0.778010000000     0.123770000000    -0.0983815  
C119     C      0.537720000000     0.781490000000     0.088860000000    -0.100312   
C120     C      0.506420000000     0.810140000000     0.132270000000    -0.0998805  
C121     C      0.488660000000     0.771420000000     0.096270000000     0.0179533  
C122     C      0.473010000000     0.788410000000     0.115930000000     0.0165005  
C123     C      0.477440000000     0.725040000000     0.060830000000     0.0156453  
C124     C      0.454940000000     0.750130000000     0.079890000000    -0.0998502  
C125     C      0.261490000000     0.822080000000     0.087140000000     0.0147546  
C126     C      0.325510000000     0.766270000000     0.995580000000     0.0159213  
C127     C      0.350110000000     0.714310000000     0.025760000000     0.0183014  
C128     C      0.327690000000     0.806030000000     0.011530000000    -0.104861   
C129     C      0.301270000000     0.800050000000     0.075170000000    -0.102134   
C130     C      0.357540000000     0.753130000000     0.041510000000    -0.107663   
C131     C      0.305860000000     0.816820000000     0.051600000000     0.0168817  
C132     C      0.326390000000     0.791670000000     0.035660000000     0.0214529  
C133     C      0.286760000000     0.892640000000     0.067110000000     0.0133718  
C134     C      0.287000000000     0.862790000000     0.046550000000    -0.102016   
C135     C      0.534950000000     0.713700000000     0.896740000000     0.0143248  
C136     C      0.493140000000     0.887610000000     0.339780000000     0.0143996  
C137     C      0.490700000000     0.818290000000     0.317860000000     0.0152396  
C138     C      0.512750000000     0.863490000000     0.859970000000    -0.100351   
C139     C      0.515030000000     0.736160000000     0.376160000000    -0.100212   
C140     C      0.513890000000     0.790900000000     0.335860000000    -0.100308   
C141     C      0.514100000000     0.787050000000     0.877560000000     0.0164006  
C142     C      0.510530000000     0.812490000000     0.358700000000     0.0163669  
C143     C      0.526070000000     0.781600000000     0.919440000000     0.013607   
C144     C      0.505720000000     0.807820000000     0.900230000000    -0.100457   
C145     C      0.677790000000     0.562170000000     0.278410000000     0.0137359  
C146     C      0.618430000000     0.702040000000     0.212400000000     0.016568   
C147     C      0.603840000000     0.720290000000     0.251650000000     0.0135712  
C148     C      0.642180000000     0.658360000000     0.218020000000    -0.100869   
C149     C      0.696640000000     0.608130000000     0.272330000000    -0.10283    
C150     C      0.629360000000     0.678950000000     0.259900000000    -0.0996435  
C151     C      0.684550000000     0.619240000000     0.248480000000     0.0182804  
C152     C      0.655730000000     0.653160000000     0.242310000000     0.0178557  
C153     C      0.682310000000     0.539390000000     0.238090000000     0.0145533  
C154     C      0.702830000000     0.584760000000     0.232450000000    -0.103369   
C155     C      0.502750000000     0.166950000000     0.309700000000     0.0142308  
C156     C      0.552900000000     0.356210000000     0.272540000000     0.0160217  
C157     C      0.594630000000     0.295770000000     0.253870000000     0.0158728  
C158     C      0.526590000000     0.324280000000     0.287510000000    -0.100592   
C159     C      0.509270000000     0.193960000000     0.288460000000    -0.10197    
C160     C      0.570550000000     0.259370000000     0.267210000000    -0.102022   
C161     C      0.504390000000     0.243920000000     0.292530000000     0.0172082  
C162     C      0.531050000000     0.274870000000     0.281760000000     0.0177665  
C163     C      0.457330000000     0.227950000000     0.326830000000     0.0144149  
C164     C      0.463140000000     0.257360000000     0.306370000000    -0.101312   
C165     C      0.689870000000     0.535730000000     0.069690000000     0.0138809  
C166     C      0.519600000000     0.551870000000     0.006640000000     0.0141364  
C167     C      0.576190000000     0.613770000000     0.001880000000     0.0138493  
C168     C      0.533230000000     0.546570000000     0.030970000000    -0.10167    
C169     C      0.660950000000     0.558550000000     0.051710000000    -0.0992278  
C170     C      0.591260000000     0.609730000000     0.026060000000    -0.10226    
C171     C      0.611660000000     0.541690000000     0.049220000000     0.0168411  
C172     C      0.581570000000     0.563540000000     0.035410000000     0.0184802  
C173     C      0.629990000000     0.479980000000     0.077300000000     0.0165393  
C174     C      0.598910000000     0.496070000000     0.058670000000    -0.0999065  
C175     C      0.695300000000     0.247910000000     0.082260000000     0.0360081  
C176     C      0.507490000000     0.205800000000     0.033450000000     0.0135385  
C177     C      0.497530000000     0.239800000000     0.070270000000     0.0148447  
C178     C      0.559030000000     0.200360000000     0.036830000000    -0.0993563  
C179     C      0.643870000000     0.252890000000     0.080170000000    -0.108455   
C180     C      0.547210000000     0.232580000000     0.076850000000    -0.0989772  
C181     C      0.624520000000     0.233460000000     0.058680000000     0.019798   
C182     C      0.578460000000     0.225330000000     0.056910000000     0.0147147  
C183     C      0.706560000000     0.232920000000     0.042670000000     0.0177668  
C184     C      0.654990000000     0.232200000000     0.038030000000    -0.102128   
C185     C      0.080010000000     0.028050000000     0.345650000000     0.0137636  
C186     C      0.870790000000     0.079480000000     0.847200000000     0.0156253  
C187     C      0.905990000000     0.090370000000     0.310610000000     0.0153163  
C188     C      0.915570000000     0.065870000000     0.358190000000    -0.0995785  
C189     C      0.033130000000     0.023520000000     0.834500000000    -0.101273   
C190     C      0.953150000000     0.075550000000     0.318760000000    -0.0998715  
C191     C      0.993680000000     0.035680000000     0.849840000000     0.0180913  
C192     C      0.954460000000     0.055670000000     0.342130000000     0.0171234  
C193     C      0.044630000000     0.024840000000     0.883110000000     0.0158134  
C194     C      0.997260000000     0.017290000000     0.873310000000    -0.102103   
C195     C      0.724770000000     0.236990000000     0.271670000000     0.0151091  
C196     C      0.635830000000     0.068040000000     0.302830000000     0.0124123  
C197     C      0.665940000000     0.066270000000     0.263930000000     0.0132872  
C198     C      0.615200000000     0.114190000000     0.298670000000    -0.101401   
C199     C      0.699500000000     0.193300000000     0.266780000000    -0.099799   
C200     C      0.644780000000     0.111740000000     0.259280000000    -0.100997   
C201     C      0.665110000000     0.177400000000     0.284120000000     0.0159296  
C202     C      0.642090000000     0.138120000000     0.280720000000     0.0157302  
C203     C      0.682410000000     0.247920000000     0.306450000000     0.016678   
C204     C      0.661350000000     0.201400000000     0.306340000000    -0.100771   
C205     C      0.873700000000     0.296180000000     0.907600000000     0.0144964  
C206     C      0.740630000000     0.398940000000     0.972880000000     0.0163163  
C207     C      0.821380000000     0.420230000000     0.978150000000     0.0137705  
C208     C      0.751860000000     0.360480000000     0.957410000000    -0.100868   
C209     C      0.858490000000     0.338920000000     0.919270000000    -0.102917   
C210     C      0.837690000000     0.385980000000     0.961130000000    -0.101364   
C211     C      0.811730000000     0.335280000000     0.930410000000     0.0183095  
C212     C      0.800280000000     0.361940000000     0.948040000000     0.015576   
C213     C      0.794700000000     0.265690000000     0.908060000000     0.0151274  
C214     C      0.775450000000     0.307890000000     0.918370000000    -0.10142    
C215     C      0.905280000000     0.021510000000     0.102020000000     0.0160857  
C216     C      0.107180000000     0.078280000000     0.130060000000     0.014794   
C217     C      0.103650000000     0.046230000000     0.092640000000     0.0149189  
C218     C      0.057600000000     0.066560000000     0.135190000000    -0.0994876  
C219     C      0.954060000000     0.035450000000     0.096300000000    -0.0999804  
C220     C      0.053820000000     0.031840000000     0.095030000000    -0.0994517  
C221     C      0.982540000000     0.050350000000     0.116340000000     0.0178016  
C222     C      0.029340000000     0.052280000000     0.114970000000     0.0163839  
C223     C      0.908870000000     0.055520000000     0.139080000000     0.0166731  
C224     C      0.957980000000     0.071550000000     0.136050000000    -0.100152   
C225     C      0.509330000000     0.978660000000     0.042860000000     0.0167141  
C226     C      0.688930000000     0.079300000000     0.045050000000     0.0126594  
C227     C      0.651910000000     0.071000000000     0.082510000000     0.0126524  
C228     C      0.642520000000     0.089600000000     0.034680000000    -0.101946   
C229     C      0.545860000000     0.007430000000     0.054220000000    -0.0982084  
C230     C      0.605260000000     0.080590000000     0.072130000000    -0.101899   
C231     C      0.575190000000     0.036300000000     0.038980000000     0.0199452  
C232     C      0.604880000000     0.067060000000     0.047880000000     0.017493   
C233     C      0.537170000000     0.999050000000     0.005560000000     0.0160295  
C234     C      0.578470000000     0.024140000000     0.014540000000    -0.0998523  
C235     C      0.827600000000     0.302600000000     0.241810000000     0.0146871  
C236     C      0.757740000000     0.283670000000     0.142470000000     0.009769   
C237     C      0.738250000000     0.218900000000     0.166040000000     0.0154194  
C238     C      0.791660000000     0.301790000000     0.159640000000    -0.0975719  
C239     C      0.801090000000     0.278540000000     0.223670000000    -0.0980859  
C240     C      0.773440000000     0.231380000000     0.183630000000    -0.0999455  
C241     C      0.801830000000     0.302510000000     0.201270000000     0.0162716  
C242     C      0.786750000000     0.280660000000     0.182630000000     0.0162693  
C243     C      0.832880000000     0.373010000000     0.221290000000     0.0134886  
C244     C      0.811100000000     0.352870000000     0.200420000000    -0.0985032  
C245     C      0.717930000000     0.827110000000     0.280870000000     0.013415   
C246     C      0.832620000000     0.707380000000     0.219690000000     0.0138952  
C247     C      0.807160000000     0.663960000000     0.252850000000     0.0126654  
C248     C      0.820960000000     0.751120000000     0.231220000000    -0.101824   
C249     C      0.728130000000     0.778450000000     0.275240000000    -0.101662   
C250     C      0.795170000000     0.706780000000     0.265200000000    -0.101064   
C251     C      0.751140000000     0.774570000000     0.252830000000     0.0182173  
C252     C      0.785040000000     0.744310000000     0.249050000000     0.0180934  
C253     C      0.717930000000     0.847860000000     0.240670000000     0.0139721  
C254     C      0.727580000000     0.799710000000     0.234170000000    -0.102034   
C255     C      0.096330000000     0.668180000000     0.204150000000     0.0162655  
C256     C      0.093600000000     0.877800000000     0.188300000000     0.0147635  
C257     C      0.084080000000     0.834170000000     0.153860000000     0.0163968  
C258     C      0.102960000000     0.835610000000     0.201950000000    -0.100451   
C259     C      0.086620000000     0.708020000000     0.189270000000    -0.0999625  
C260     C      0.098960000000     0.790790000000     0.164740000000    -0.100728   
C261     C      0.088650000000     0.752530000000     0.201540000000     0.0178064  
C262     C      0.093380000000     0.791620000000     0.189870000000     0.017997   
C263     C      0.079970000000     0.709190000000     0.238570000000     0.0152159  
C264     C      0.076170000000     0.753740000000     0.226170000000    -0.0998339  
C265     C      0.919990000000     0.401690000000     0.088190000000     0.0147016  
C266     C      0.892820000000     0.472340000000     0.184460000000     0.0143273  
C267     C      0.923180000000     0.529590000000     0.158160000000     0.015283   
C268     C      0.915350000000     0.435090000000     0.171160000000    -0.104452   
C269     C      0.925440000000     0.437310000000     0.105990000000    -0.0986935  
C270     C      0.947250000000     0.493840000000     0.144640000000    -0.103645   
C271     C      0.914130000000     0.421640000000     0.129500000000     0.0162711  
C272     C      0.923530000000     0.448960000000     0.147200000000     0.0202845  
C273     C      0.878930000000     0.349790000000     0.112590000000     0.0126715  
C274     C      0.885190000000     0.379580000000     0.132950000000    -0.0978003  
C275     C      0.656620000000     0.813220000000     0.962760000000     0.0143224  
C276     C      0.733740000000     0.641280000000     0.012300000000     0.0165954  
C277     C      0.782850000000     0.707110000000     0.017670000000     0.0161257  
C278     C      0.706930000000     0.662730000000     0.993440000000    -0.100169   
C279     C      0.687940000000     0.789640000000     0.979410000000    -0.0991212  
C280     C      0.758760000000     0.733810000000     0.999540000000    -0.100012   
C281     C      0.682460000000     0.738740000000     0.980290000000     0.016636   
C282     C      0.713300000000     0.713410000000     0.991900000000     0.0170336  
C283     C      0.612360000000     0.745340000000     0.955180000000     0.0159139  
C284     C      0.637850000000     0.717540000000     0.972210000000    -0.0991044  
C285     C      0.009530000000     0.704450000000     0.970980000000     0.0155059  
C286     C      0.086900000000     0.790640000000     0.882560000000     0.0149125  
C287     C      0.147200000000     0.770810000000     0.909440000000     0.0166566  
C288     C      0.048550000000     0.778760000000     0.898650000000    -0.0999591  
C289     C      0.046200000000     0.706000000000     0.953080000000    -0.101416   
C290     C      0.113090000000     0.757990000000     0.927380000000    -0.100355   
C291     C      0.031850000000     0.732420000000     0.932550000000     0.0181103  
C292     C      0.063760000000     0.752910000000     0.919280000000     0.0173209  
C293     C      0.948580000000     0.725020000000     0.944170000000     0.0161245  
C294     C      0.982290000000     0.727070000000     0.924970000000    -0.101709   
C295     C      0.871320000000     0.515680000000     0.912160000000     0.0139941  
C296     C      0.738590000000     0.383570000000     0.361620000000     0.0153922  
C297     C      0.816710000000     0.385680000000     0.346470000000     0.0240878  
C298     C      0.749050000000     0.420000000000     0.878650000000    -0.100406   
C299     C      0.864200000000     0.469030000000     0.402730000000    -0.10171    
C300     C      0.832630000000     0.421380000000     0.362680000000    -0.103005   
C301     C      0.813880000000     0.458010000000     0.898840000000     0.0174635  
C302     C      0.799670000000     0.431590000000     0.381500000000     0.0180844  
C303     C      0.791710000000     0.517100000000     0.926940000000     0.0131655  
C304     C      0.781870000000     0.470730000000     0.917600000000    -0.10329    
C305     C      0.300930000000     0.429130000000     0.182000000000     0.0150563  
C306     C      0.334010000000     0.625770000000     0.212180000000     0.0141198  
C307     C      0.390180000000     0.601250000000     0.183610000000     0.0136132  
C308     C      0.329760000000     0.578470000000     0.221210000000    -0.101925   
C309     C      0.325820000000     0.474130000000     0.181700000000    -0.0998196  
C310     C      0.385300000000     0.552710000000     0.191040000000    -0.101745   
C311     C      0.316530000000     0.505060000000     0.201320000000     0.0169436  
C312     C      0.340950000000     0.544050000000     0.203550000000     0.0181083  
C313     C      0.256970000000     0.448980000000     0.215280000000     0.0155002  
C314     C      0.274500000000     0.496810000000     0.215720000000    -0.0999934  
C315     C      0.257200000000     0.171120000000     0.079060000000     0.0135632  
C316     C      0.175230000000     0.245940000000     0.149060000000     0.0155647  
C317     C      0.120030000000     0.263570000000     0.117670000000     0.0156134  
C318     C      0.169490000000     0.198060000000     0.140650000000    -0.10339    
C319     C      0.205380000000     0.164810000000     0.080410000000    -0.103346   
C320     C      0.149780000000     0.234320000000     0.102900000000    -0.10275    
C321     C      0.192100000000     0.161840000000     0.104500000000     0.0203715  
C322     C      0.171710000000     0.196170000000     0.115540000000     0.0186915  
C323     C      0.265390000000     0.128160000000     0.115500000000     0.0139473  
C324     C      0.213690000000     0.122180000000     0.115710000000    -0.103244   
C325     C      0.977940000000     0.315350000000     0.296890000000     0.0166484  
C326     C      0.015890000000     0.428510000000     0.216140000000     0.0148985  
C327     C      0.004950000000     0.349210000000     0.202620000000     0.0145059  
C328     C      0.976570000000     0.415710000000     0.231830000000    -0.102704   
C329     C      0.979730000000     0.312910000000     0.271830000000    -0.101416   
C330     C      0.005840000000     0.334790000000     0.226770000000    -0.101795   
C331     C      0.965890000000     0.357140000000     0.261540000000     0.0169571  
C332     C      0.982680000000     0.369110000000     0.241330000000     0.0165782  
C333     C      0.918590000000     0.374360000000     0.296370000000     0.0133115  
C334     C      0.924590000000     0.380940000000     0.271330000000    -0.103799   
C335     C      0.975040000000     0.483760000000     0.029150000000     0.014622   
C336     C      0.086870000000     0.536220000000     0.115760000000     0.0145544  
C337     C      0.132500000000     0.492200000000     0.089580000000     0.0148654  
C338     C      0.042400000000     0.528240000000     0.103190000000    -0.0990629  
C339     C      0.019620000000     0.495510000000     0.041020000000    -0.100578   
C340     C      0.091410000000     0.482700000000     0.074570000000    -0.0994969  
C341     C      0.013220000000     0.511980000000     0.064750000000     0.0165394  
C342     C      0.048800000000     0.510410000000     0.079670000000     0.0155603  
C343     C      0.928420000000     0.524720000000     0.056470000000     0.0142315  
C344     C      0.970290000000     0.538950000000     0.069850000000    -0.100082   
C345     C      0.363130000000     0.548870000000     0.912820000000     0.0154208  
C346     C      0.164600000000     0.486150000000     0.939540000000     0.0140025  
C347     C      0.220600000000     0.423850000000     0.936740000000     0.0147262  
C348     C      0.193210000000     0.515220000000     0.924040000000    -0.101418   
C349     C      0.327750000000     0.514430000000     0.920190000000    -0.100196   
C350     C      0.250530000000     0.450510000000     0.920900000000    -0.101787   
C351     C      0.278230000000     0.530690000000     0.920430000000     0.0172983  
C352     C      0.243070000000     0.500600000000     0.923030000000     0.0180847  
C353     C      0.307640000000     0.610570000000     0.914180000000     0.0149361  
C354     C      0.269010000000     0.580660000000     0.922390000000    -0.0999686  
C355     C      0.144780000000     0.204480000000     0.946110000000     0.0147578  
C356     C      0.212570000000     0.089920000000     0.375580000000     0.0140859  
C357     C      0.263880000000     0.139450000000     0.898720000000     0.0158564  
C358     C      0.170340000000     0.114340000000     0.384150000000    -0.102817   
C359     C      0.155880000000     0.154990000000     0.945350000000    -0.104267   
C360     C      0.222430000000     0.163900000000     0.407590000000    -0.103804   
C361     C      0.146790000000     0.137960000000     0.922430000000     0.0224484  
C362     C      0.179500000000     0.135670000000     0.406420000000     0.0221205  
C363     C      0.080210000000     0.187520000000     0.417280000000     0.0130178  
C364     C      0.096550000000     0.138910000000     0.917240000000    -0.104048   
C365     C      0.950200000000     0.380310000000     0.990310000000     0.0175561  
C366     C      0.924420000000     0.231820000000     0.059580000000     0.0138249  
C367     C      0.854890000000     0.246930000000     0.036420000000     0.00876706 
C368     C      0.937320000000     0.281190000000     0.059180000000    -0.101175   
C369     C      0.921350000000     0.347160000000     0.003340000000    -0.106737   
C370     C      0.866300000000     0.296510000000     0.035810000000    -0.083132   
C371     C      0.943270000000     0.329070000000     0.024420000000     0.0247886  
C372     C      0.917540000000     0.303840000000     0.038720000000     0.0142651  
C373     C      0.019650000000     0.364910000000     0.012380000000     0.016606   
C374     C      0.995100000000     0.331320000000     0.027230000000    -0.1029     
C375     C      0.967480000000     0.389280000000     0.370830000000     0.0136091  
C376     C      0.037460000000     0.499760000000     0.287120000000     0.0132388  
C377     C      0.976960000000     0.538150000000     0.308660000000     0.0146215  
C378     C      0.030160000000     0.456410000000     0.300110000000    -0.101415   
C379     C      0.972270000000     0.432760000000     0.357820000000    -0.0996013  
C380     C      0.963580000000     0.495580000000     0.320720000000    -0.100968   
C381     C      0.004190000000     0.429880000000     0.337840000000     0.0171514  
C382     C      0.001830000000     0.461230000000     0.321190000000     0.0169341  
C383     C      0.035380000000     0.356240000000     0.353210000000     0.0142879  
C384     C      0.044540000000     0.397690000000     0.339210000000    -0.0996414  
C385     C      0.089290000000     0.260130000000     0.435030000000     0.403102   
C386     C      0.031720000000     0.362350000000     0.893950000000     0.403555   
C387     C      0.021680000000     0.359420000000     0.471580000000     0.404846   
C388     C      0.138040000000     0.408760000000     0.434080000000     0.410885   
C389     C      0.142950000000     0.320610000000     0.644930000000     0.408185   
C390     C      0.124370000000     0.467180000000     0.628350000000     0.407489   
C391     C      0.063620000000     0.397780000000     0.686460000000     0.399054   
C392     C      0.216560000000     0.423920000000     0.681550000000     0.410612   
C393     C      0.815450000000     0.637360000000     0.503280000000     0.402598   
C394     C      0.922100000000     0.542820000000     0.516740000000     0.414379   
C395     C      0.856040000000     0.545280000000     0.449390000000     0.400037   
C396     C      0.938600000000     0.659880000000     0.468730000000     0.416371   
C397     C      0.880570000000     0.646840000000     0.734900000000     0.404257   
C398     C      0.981860000000     0.548730000000     0.768300000000     0.402233   
C399     C      0.930520000000     0.540730000000     0.698440000000     0.407197   
C400     C      0.030840000000     0.645850000000     0.727120000000     0.409106   
C401     C      0.855810000000     0.085290000000     0.610970000000     0.413723   
C402     C      0.768280000000     0.206900000000     0.628490000000     0.402238   
C403     C      0.849230000000     0.201400000000     0.570320000000     0.407551   
C404     C      0.725350000000     0.110600000000     0.578430000000     0.404541   
C405     C      0.868430000000     0.153570000000     0.829430000000     0.41053    
C406     C      0.839020000000     0.265080000000     0.873470000000     0.400343   
C407     C      0.902720000000     0.300560000000     0.813260000000     0.409778   
C408     C      0.766390000000     0.245670000000     0.807020000000     0.411026   
C409     C      0.707000000000     0.455180000000     0.566470000000     0.414147   
C410     C      0.774160000000     0.398870000000     0.510440000000     0.401994   
C411     C      0.839820000000     0.381830000000     0.579920000000     0.395599   
C412     C      0.733340000000     0.303830000000     0.559000000000     0.407238   
C413     C      0.700680000000     0.486180000000     0.767780000000     0.408611   
C414     C      0.783480000000     0.367430000000     0.754280000000     0.400577   
C415     C      0.750430000000     0.393800000000     0.821420000000     0.416638   
C416     C      0.637250000000     0.357670000000     0.771610000000     0.410981   
C417     C      0.498620000000     0.620060000000     0.486100000000     0.405154   
C418     C      0.384480000000     0.708980000000     0.488700000000     0.408677   
C419     C      0.490160000000     0.710940000000     0.431320000000     0.405113   
C420     C      0.380460000000     0.616310000000     0.434840000000     0.40698    
C421     C      0.404610000000     0.668730000000     0.705960000000     0.403189   
C422     C      0.445170000000     0.795250000000     0.677420000000     0.411369   
C423     C      0.419700000000     0.790140000000     0.747830000000     0.402737   
C424     C      0.540540000000     0.721270000000     0.724450000000     0.410346   
C425     C      0.520130000000     0.920500000000     0.514450000000     0.405676   
C426     C      0.513730000000     0.778670000000     0.535370000000     0.417197   
C427     C      0.429730000000     0.842530000000     0.477910000000     0.40843    
C428     C      0.576470000000     0.807650000000     0.474710000000     0.39806    
C429     C      0.621150000000     0.003080000000     0.778580000000     0.401111   
C430     C      0.531620000000     0.884180000000     0.803530000000     0.400426   
C431     C      0.513860000000     0.936310000000     0.741740000000     0.410042   
C432     C      0.656230000000     0.873630000000     0.765310000000     0.407407   
C433     C      0.458290000000     0.169490000000     0.561370000000     0.394118   
C434     C      0.394940000000     0.039100000000     0.542980000000     0.391757   
C435     C      0.464770000000     0.064670000000     0.606820000000     0.405987   
C436     C      0.324210000000     0.124340000000     0.586710000000     0.41646    
C437     C      0.289200000000     0.111270000000     0.862970000000     0.402725   
C438     C      0.405310000000     0.037330000000     0.868590000000     0.406224   
C439     C      0.328960000000     0.065210000000     0.799770000000     0.407287   
C440     C      0.428100000000     0.150660000000     0.826880000000     0.406847   
C441     C      0.113160000000     0.980460000000     0.375030000000     0.40539    
C442     C      0.255860000000     0.912480000000     0.865410000000     0.398258   
C443     C      0.205050000000     0.972620000000     0.427720000000     0.410826   
C444     C      0.144900000000     0.846620000000     0.393520000000     0.404811   
C445     C      0.153630000000     0.012380000000     0.620950000000     0.404166   
C446     C      0.244550000000     0.895850000000     0.602180000000     0.399938   
C447     C      0.280360000000     0.961820000000     0.658950000000     0.410545   
C448     C      0.139400000000     0.896140000000     0.655070000000     0.404177   
C449     C      0.303550000000     0.083490000000     0.761720000000     0.0142594  
C450     C      0.336600000000     0.938900000000     0.687180000000     0.0165252  
C451     C      0.338110000000     0.015410000000     0.672670000000     0.0144726  
C452     C      0.323710000000     0.953220000000     0.710520000000    -0.0994881  
C453     C      0.330290000000     0.069030000000     0.741230000000    -0.10101    
C454     C      0.327360000000     0.035970000000     0.695230000000    -0.098788   
C455     C      0.325100000000     0.019360000000     0.736120000000     0.0172505  
C456     C      0.328000000000     0.003410000000     0.714830000000     0.0157691  
C457     C      0.298600000000     0.005740000000     0.775530000000     0.0160522  
C458     C      0.325790000000     0.987850000000     0.756000000000    -0.10193    
C459     C      0.199900000000     0.981660000000     0.468280000000     0.0156974  
C460     C      0.400950000000     0.019380000000     0.503580000000     0.0141228  
C461     C      0.357550000000     0.970890000000     0.528830000000     0.0121022  
C462     C      0.358830000000     0.033720000000     0.490560000000    -0.0988298  
C463     C      0.242140000000     0.970860000000     0.482130000000    -0.100116   
C464     C      0.312680000000     0.978790000000     0.516350000000    -0.0985805  
C465     C      0.281670000000     0.003940000000     0.479450000000     0.0159696  
C466     C      0.317540000000     0.003210000000     0.494150000000     0.0146298  
C467     C      0.240200000000     0.038000000000     0.445900000000     0.0160057  
C468     C      0.285340000000     0.031160000000     0.458040000000    -0.100712   
C469     C      0.503130000000     0.073560000000     0.642930000000     0.015166   
C470     C      0.469670000000     0.911960000000     0.708920000000     0.0167929  
C471     C      0.454470000000     0.984980000000     0.725910000000     0.0153054  
C472     C      0.481020000000     0.933030000000     0.686490000000    -0.0996958  
C473     C      0.476800000000     0.055020000000     0.662630000000    -0.0995266  
C474     C      0.469940000000     0.011470000000     0.705770000000    -0.0990397  
C475     C      0.480640000000     0.004350000000     0.664620000000     0.0166339  
C476     C      0.474860000000     0.983600000000     0.684730000000     0.0171799  
C477     C      0.505180000000     0.000870000000     0.623780000000     0.0141884  
C478     C      0.481720000000     0.977160000000     0.643140000000    -0.0998954  
C479     C      0.361220000000     0.886520000000     0.469310000000     0.0156082  
C480     C      0.437870000000     0.964470000000     0.379460000000     0.0143445  
C481     C      0.423010000000     0.022060000000     0.407770000000     0.014622   
C482     C      0.405190000000     0.931530000000     0.390630000000    -0.102578   
C483     C      0.375200000000     0.924990000000     0.454230000000    -0.0999209  
C484     C      0.388070000000     0.992850000000     0.419630000000    -0.101119   
C485     C      0.387650000000     0.911300000000     0.430580000000     0.0165667  
C486     C      0.395630000000     0.943460000000     0.414830000000     0.0174729  
C487     C      0.386700000000     0.828970000000     0.443440000000     0.0153137  
C488     C      0.400470000000     0.862870000000     0.425760000000    -0.0990098  
C489     C      0.304940000000     0.934170000000     0.834360000000     0.017949   
C490     C      0.383910000000     0.787600000000     0.784260000000     0.0155651  
C491     C      0.413920000000     0.860760000000     0.768070000000     0.0142885  
C492     C      0.347450000000     0.813750000000     0.796480000000    -0.104594   
C493     C      0.354140000000     0.927430000000     0.826430000000    -0.106451   
C494     C      0.377850000000     0.886290000000     0.781240000000    -0.104651   
C495     C      0.361860000000     0.878540000000     0.822260000000     0.0202288  
C496     C      0.363870000000     0.860370000000     0.801560000000     0.0218674  
C497     C      0.307150000000     0.855340000000     0.851070000000     0.012065   
C498     C      0.356210000000     0.851420000000     0.843030000000    -0.103165   
C499     C      0.553850000000     0.754150000000     0.569080000000     0.017505   
C500     C      0.406790000000     0.809520000000     0.641740000000     0.0141469  
C501     C      0.483210000000     0.840480000000     0.648970000000     0.0161142  
C502     C      0.424310000000     0.778010000000     0.623770000000    -0.098352   
C503     C      0.537720000000     0.781490000000     0.588860000000    -0.100316   
C504     C      0.506430000000     0.810140000000     0.632270000000    -0.0998995  
C505     C      0.488660000000     0.771420000000     0.596270000000     0.0179649  
C506     C      0.473010000000     0.788400000000     0.615920000000     0.0164474  
C507     C      0.477440000000     0.725040000000     0.560830000000     0.0156481  
C508     C      0.454950000000     0.750130000000     0.579890000000    -0.0997733  
C509     C      0.261490000000     0.822070000000     0.587140000000     0.0146901  
C510     C      0.325510000000     0.766270000000     0.495580000000     0.0157387  
C511     C      0.350120000000     0.714310000000     0.525760000000     0.0183126  
C512     C      0.327690000000     0.806030000000     0.511530000000    -0.104748   
C513     C      0.301270000000     0.800050000000     0.575170000000    -0.102113   
C514     C      0.357540000000     0.753120000000     0.541510000000    -0.107649   
C515     C      0.305860000000     0.816820000000     0.551600000000     0.0168965  
C516     C      0.326390000000     0.791670000000     0.535660000000     0.0214136  
C517     C      0.286760000000     0.892640000000     0.567110000000     0.0133561  
C518     C      0.287000000000     0.862790000000     0.546550000000    -0.102017   
C519     C      0.534950000000     0.713700000000     0.396740000000     0.0143159  
C520     C      0.493130000000     0.887610000000     0.839780000000     0.0143685  
C521     C      0.490710000000     0.818280000000     0.817860000000     0.01519    
C522     C      0.512750000000     0.863490000000     0.359970000000    -0.100372   
C523     C      0.515030000000     0.736160000000     0.876160000000    -0.100239   
C524     C      0.513890000000     0.790900000000     0.835870000000    -0.10028    
C525     C      0.514100000000     0.787050000000     0.377560000000     0.0163962  
C526     C      0.510540000000     0.812490000000     0.858700000000     0.0163904  
C527     C      0.526070000000     0.781600000000     0.419440000000     0.013605   
C528     C      0.505720000000     0.807820000000     0.400230000000    -0.100442   
C529     C      0.677790000000     0.562170000000     0.778410000000     0.013627   
C530     C      0.618430000000     0.702040000000     0.712400000000     0.0165598  
C531     C      0.603840000000     0.720290000000     0.751650000000     0.0136217  
C532     C      0.642180000000     0.658360000000     0.718020000000    -0.100832   
C533     C      0.696640000000     0.608130000000     0.772330000000    -0.102826   
C534     C      0.629360000000     0.678950000000     0.759900000000    -0.0996584  
C535     C      0.684550000000     0.619240000000     0.748480000000     0.0182904  
C536     C      0.655730000000     0.653160000000     0.742310000000     0.0178459  
C537     C      0.682310000000     0.539390000000     0.738090000000     0.0146341  
C538     C      0.702830000000     0.584760000000     0.732450000000    -0.103401   
C539     C      0.502750000000     0.166950000000     0.809700000000     0.0142311  
C540     C      0.552900000000     0.356210000000     0.772540000000     0.0159656  
C541     C      0.594630000000     0.295770000000     0.753870000000     0.0158762  
C542     C      0.526580000000     0.324280000000     0.787510000000    -0.100558   
C543     C      0.509270000000     0.193960000000     0.788460000000    -0.101972   
C544     C      0.570550000000     0.259370000000     0.767210000000    -0.102024   
C545     C      0.504390000000     0.243920000000     0.792530000000     0.0172129  
C546     C      0.531050000000     0.274870000000     0.781760000000     0.0177576  
C547     C      0.457320000000     0.227950000000     0.826830000000     0.0143998  
C548     C      0.463140000000     0.257360000000     0.806370000000    -0.101306   
C549     C      0.689870000000     0.535730000000     0.569690000000     0.0138788  
C550     C      0.519590000000     0.551870000000     0.506640000000     0.0143252  
C551     C      0.576190000000     0.613770000000     0.501880000000     0.0141273  
C552     C      0.533230000000     0.546570000000     0.530970000000    -0.101832   
C553     C      0.660950000000     0.558550000000     0.551710000000    -0.0992161  
C554     C      0.591260000000     0.609730000000     0.526060000000    -0.102351   
C555     C      0.611660000000     0.541690000000     0.549220000000     0.0168106  
C556     C      0.581560000000     0.563540000000     0.535410000000     0.0185785  
C557     C      0.629990000000     0.479980000000     0.577300000000     0.016537   
C558     C      0.598910000000     0.496070000000     0.558670000000    -0.0998944  
C559     C      0.695300000000     0.247910000000     0.582260000000     0.0360005  
C560     C      0.507490000000     0.205800000000     0.533450000000     0.0135426  
C561     C      0.497530000000     0.239800000000     0.570270000000     0.0148706  
C562     C      0.559030000000     0.200360000000     0.536830000000    -0.099372   
C563     C      0.643870000000     0.252890000000     0.580170000000    -0.108435   
C564     C      0.547210000000     0.232580000000     0.576850000000    -0.0990679  
C565     C      0.624520000000     0.233450000000     0.558680000000     0.0197628  
C566     C      0.578460000000     0.225330000000     0.556910000000     0.0147504  
C567     C      0.706570000000     0.232920000000     0.542670000000     0.0176802  
C568     C      0.654990000000     0.232200000000     0.538030000000    -0.102069   
C569     C      0.080010000000     0.028050000000     0.845650000000     0.0137457  
C570     C      0.870790000000     0.079480000000     0.347200000000     0.0156374  
C571     C      0.905990000000     0.090370000000     0.810610000000     0.0153102  
C572     C      0.915570000000     0.065870000000     0.858190000000    -0.0995319  
C573     C      0.033130000000     0.023520000000     0.334500000000    -0.101278   
C574     C      0.953150000000     0.075550000000     0.818760000000    -0.0998493  
C575     C      0.993690000000     0.035680000000     0.349830000000     0.018055   
C576     C      0.954470000000     0.055670000000     0.842130000000     0.0170838  
C577     C      0.044630000000     0.024840000000     0.383110000000     0.0158489  
C578     C      0.997260000000     0.017290000000     0.373320000000    -0.102132   
C579     C      0.724770000000     0.236990000000     0.771670000000     0.0151601  
C580     C      0.635830000000     0.068040000000     0.802830000000     0.0123508  
C581     C      0.665940000000     0.066270000000     0.763930000000     0.0133082  
C582     C      0.615200000000     0.114190000000     0.798670000000    -0.101331   
C583     C      0.699500000000     0.193300000000     0.766780000000    -0.0998148  
C584     C      0.644780000000     0.111740000000     0.759280000000    -0.101068   
C585     C      0.665110000000     0.177400000000     0.784130000000     0.0159303  
C586     C      0.642090000000     0.138120000000     0.780720000000     0.0157329  
C587     C      0.682410000000     0.247920000000     0.806450000000     0.0166546  
C588     C      0.661350000000     0.201400000000     0.806340000000    -0.100733   
C589     C      0.873700000000     0.296180000000     0.407600000000     0.0144974  
C590     C      0.740630000000     0.398930000000     0.472880000000     0.0163077  
C591     C      0.821370000000     0.420230000000     0.478150000000     0.013844   
C592     C      0.751870000000     0.360480000000     0.457410000000    -0.100843   
C593     C      0.858490000000     0.338920000000     0.419270000000    -0.102916   
C594     C      0.837700000000     0.385980000000     0.461130000000    -0.10149    
C595     C      0.811730000000     0.335280000000     0.430410000000     0.0183096  
C596     C      0.800280000000     0.361940000000     0.448040000000     0.015596   
C597     C      0.794700000000     0.265690000000     0.408060000000     0.0151453  
C598     C      0.775450000000     0.307890000000     0.418370000000    -0.101461   
C599     C      0.905280000000     0.021510000000     0.602020000000     0.0161003  
C600     C      0.107180000000     0.078280000000     0.630060000000     0.0147019  
C601     C      0.103650000000     0.046220000000     0.592640000000     0.0149906  
C602     C      0.057600000000     0.066560000000     0.635190000000    -0.0994656  
C603     C      0.954060000000     0.035450000000     0.596300000000    -0.100026   
C604     C      0.053820000000     0.031840000000     0.595030000000    -0.0995298  
C605     C      0.982540000000     0.050350000000     0.616340000000     0.017796   
C606     C      0.029340000000     0.052280000000     0.614970000000     0.0163945  
C607     C      0.908870000000     0.055520000000     0.639080000000     0.0166941  
C608     C      0.957970000000     0.071550000000     0.636050000000    -0.100152   
C609     C      0.509330000000     0.978660000000     0.542860000000     0.0166884  
C610     C      0.688930000000     0.079300000000     0.545050000000     0.0126209  
C611     C      0.651910000000     0.071000000000     0.582510000000     0.0126142  
C612     C      0.642520000000     0.089600000000     0.534680000000    -0.101838   
C613     C      0.545860000000     0.007430000000     0.554220000000    -0.0981685  
C614     C      0.605260000000     0.080590000000     0.572130000000    -0.101877   
C615     C      0.575190000000     0.036300000000     0.538980000000     0.0199637  
C616     C      0.604880000000     0.067060000000     0.547880000000     0.0174596  
C617     C      0.537170000000     0.999040000000     0.505560000000     0.0161855  
C618     C      0.578470000000     0.024140000000     0.514540000000    -0.099908   
C619     C      0.827600000000     0.302600000000     0.741800000000     0.0148205  
C620     C      0.757740000000     0.283670000000     0.642470000000     0.00976595 
C621     C      0.738250000000     0.218900000000     0.666040000000     0.0154074  
C622     C      0.791660000000     0.301790000000     0.659640000000    -0.0975189  
C623     C      0.801080000000     0.278540000000     0.723670000000    -0.0981739  
C624     C      0.773440000000     0.231380000000     0.683630000000    -0.0999129  
C625     C      0.801830000000     0.302510000000     0.701270000000     0.0163026  
C626     C      0.786760000000     0.280660000000     0.682630000000     0.0162373  
C627     C      0.832880000000     0.373010000000     0.721290000000     0.013463   
C628     C      0.811100000000     0.352870000000     0.700420000000    -0.098504   
C629     C      0.717930000000     0.827110000000     0.780870000000     0.0134092  
C630     C      0.832610000000     0.707380000000     0.719690000000     0.0139056  
C631     C      0.807170000000     0.663960000000     0.752850000000     0.0127159  
C632     C      0.820960000000     0.751120000000     0.731220000000    -0.10187    
C633     C      0.728120000000     0.778450000000     0.775240000000    -0.101618   
C634     C      0.795170000000     0.706780000000     0.765200000000    -0.101093   
C635     C      0.751140000000     0.774570000000     0.752830000000     0.0181788  
C636     C      0.785040000000     0.744310000000     0.749040000000     0.0181283  
C637     C      0.717930000000     0.847870000000     0.740670000000     0.0138945  
C638     C      0.727580000000     0.799710000000     0.734170000000    -0.101988   
C639     C      0.096330000000     0.668190000000     0.704150000000     0.0163064  
C640     C      0.093600000000     0.877810000000     0.688300000000     0.0147031  
C641     C      0.084080000000     0.834170000000     0.653860000000     0.0163775  
C642     C      0.102960000000     0.835610000000     0.701950000000    -0.100423   
C643     C      0.086620000000     0.708020000000     0.689270000000    -0.0999624  
C644     C      0.098960000000     0.790790000000     0.664740000000    -0.100674   
C645     C      0.088650000000     0.752540000000     0.701540000000     0.0177642  
C646     C      0.093380000000     0.791620000000     0.689870000000     0.0179914  
C647     C      0.079970000000     0.709200000000     0.738570000000     0.0152401  
C648     C      0.076170000000     0.753740000000     0.726180000000    -0.0998409  
C649     C      0.919990000000     0.401690000000     0.588200000000     0.0147947  
C650     C      0.892820000000     0.472340000000     0.684460000000     0.0143247  
C651     C      0.923180000000     0.529590000000     0.658160000000     0.0152819  
C652     C      0.915350000000     0.435090000000     0.671160000000    -0.104464   
C653     C      0.925440000000     0.437310000000     0.605990000000    -0.0987141  
C654     C      0.947250000000     0.493840000000     0.644630000000    -0.10372    
C655     C      0.914130000000     0.421640000000     0.629500000000     0.0162624  
C656     C      0.923520000000     0.448960000000     0.647200000000     0.020306   
C657     C      0.878930000000     0.349790000000     0.612590000000     0.012653   
C658     C      0.885190000000     0.379580000000     0.632950000000    -0.0977812  
C659     C      0.656620000000     0.813210000000     0.462760000000     0.0143921  
C660     C      0.733750000000     0.641280000000     0.512300000000     0.0167871  
C661     C      0.782850000000     0.707110000000     0.517670000000     0.0162653  
C662     C      0.706930000000     0.662730000000     0.493440000000    -0.100319   
C663     C      0.687940000000     0.789630000000     0.479410000000    -0.0991117  
C664     C      0.758760000000     0.733810000000     0.499540000000    -0.100251   
C665     C      0.682460000000     0.738740000000     0.480290000000     0.0166074  
C666     C      0.713300000000     0.713410000000     0.491900000000     0.0170976  
C667     C      0.612360000000     0.745340000000     0.455180000000     0.0158383  
C668     C      0.637850000000     0.717550000000     0.472210000000    -0.0990571  
C669     C      0.009530000000     0.704450000000     0.470980000000     0.0155385  
C670     C      0.086900000000     0.790640000000     0.382570000000     0.0150455  
C671     C      0.147200000000     0.770810000000     0.409440000000     0.0166547  
C672     C      0.048550000000     0.778760000000     0.398650000000    -0.100026   
C673     C      0.046200000000     0.706000000000     0.453080000000    -0.101422   
C674     C      0.113090000000     0.757990000000     0.427380000000    -0.100347   
C675     C      0.031850000000     0.732420000000     0.432550000000     0.018102   
C676     C      0.063760000000     0.752910000000     0.419280000000     0.017337   
C677     C      0.948580000000     0.725020000000     0.444170000000     0.0160669  
C678     C      0.982290000000     0.727080000000     0.424970000000    -0.101676   
C679     C      0.871320000000     0.515680000000     0.412160000000     0.014009   
C680     C      0.738590000000     0.383570000000     0.861620000000     0.0154297  
C681     C      0.816710000000     0.385680000000     0.846470000000     0.024058   
C682     C      0.749050000000     0.420000000000     0.378650000000    -0.100371   
C683     C      0.864200000000     0.469030000000     0.902730000000    -0.101659   
C684     C      0.832630000000     0.421380000000     0.862680000000    -0.103055   
C685     C      0.813880000000     0.458010000000     0.398850000000     0.0175634  
C686     C      0.799670000000     0.431590000000     0.881500000000     0.0181355  
C687     C      0.791710000000     0.517090000000     0.426940000000     0.0132706  
C688     C      0.781870000000     0.470720000000     0.417600000000    -0.103454   
C689     C      0.300930000000     0.429130000000     0.681990000000     0.0149679  
C690     C      0.334010000000     0.625770000000     0.712180000000     0.0141839  
C691     C      0.390190000000     0.601250000000     0.683610000000     0.0136177  
C692     C      0.329760000000     0.578470000000     0.721220000000    -0.102082   
C693     C      0.325820000000     0.474130000000     0.681700000000    -0.099775   
C694     C      0.385300000000     0.552710000000     0.691030000000    -0.101804   
C695     C      0.316530000000     0.505060000000     0.701320000000     0.016932   
C696     C      0.340950000000     0.544050000000     0.703550000000     0.0181281  
C697     C      0.256970000000     0.448980000000     0.715290000000     0.0153453  
C698     C      0.274500000000     0.496810000000     0.715720000000    -0.0999753  
C699     C      0.257200000000     0.171120000000     0.579060000000     0.0135653  
C700     C      0.175230000000     0.245940000000     0.649060000000     0.0155408  
C701     C      0.120030000000     0.263570000000     0.617670000000     0.01561    
C702     C      0.169490000000     0.198060000000     0.640650000000    -0.103314   
C703     C      0.205380000000     0.164810000000     0.580410000000    -0.103352   
C704     C      0.149780000000     0.234320000000     0.602900000000    -0.102742   
C705     C      0.192100000000     0.161840000000     0.604500000000     0.0203854  
C706     C      0.171710000000     0.196170000000     0.615540000000     0.0186706  
C707     C      0.265390000000     0.128160000000     0.615500000000     0.0139505  
C708     C      0.213690000000     0.122180000000     0.615710000000    -0.10325    
C709     C      0.977940000000     0.315350000000     0.796890000000     0.0166517  
C710     C      0.015890000000     0.428510000000     0.716140000000     0.0148992  
C711     C      0.004950000000     0.349210000000     0.702620000000     0.0144632  
C712     C      0.976570000000     0.415710000000     0.731830000000    -0.102707   
C713     C      0.979730000000     0.312910000000     0.771820000000    -0.101511   
C714     C      0.005840000000     0.334790000000     0.726780000000    -0.101814   
C715     C      0.965890000000     0.357140000000     0.761540000000     0.0170112  
C716     C      0.982670000000     0.369110000000     0.741330000000     0.0165867  
C717     C      0.918590000000     0.374360000000     0.796370000000     0.0133277  
C718     C      0.924590000000     0.380940000000     0.771330000000    -0.103837   
C719     C      0.975040000000     0.483760000000     0.529150000000     0.0146151  
C720     C      0.086870000000     0.536230000000     0.615760000000     0.0144855  
C721     C      0.132500000000     0.492200000000     0.589580000000     0.014876   
C722     C      0.042400000000     0.528230000000     0.603190000000    -0.0990198  
C723     C      0.019620000000     0.495510000000     0.541020000000    -0.100538   
C724     C      0.091410000000     0.482700000000     0.574570000000    -0.0995006  
C725     C      0.013220000000     0.511980000000     0.564750000000     0.0165146  
C726     C      0.048800000000     0.510410000000     0.579670000000     0.01557    
C727     C      0.928420000000     0.524720000000     0.556470000000     0.0141983  
C728     C      0.970290000000     0.538950000000     0.569850000000    -0.100019   
C729     C      0.363130000000     0.548870000000     0.412820000000     0.0154119  
C730     C      0.164600000000     0.486150000000     0.439540000000     0.0139714  
C731     C      0.220600000000     0.423850000000     0.436740000000     0.0147714  
C732     C      0.193210000000     0.515220000000     0.424040000000    -0.101406   
C733     C      0.327750000000     0.514430000000     0.420190000000    -0.100181   
C734     C      0.250530000000     0.450500000000     0.420900000000    -0.101829   
C735     C      0.278230000000     0.530690000000     0.420420000000     0.017284   
C736     C      0.243070000000     0.500600000000     0.423030000000     0.018077   
C737     C      0.307640000000     0.610570000000     0.414180000000     0.0149757  
C738     C      0.269010000000     0.580670000000     0.422390000000    -0.0999999  
C739     C      0.144780000000     0.204480000000     0.446110000000     0.0147136  
C740     C      0.212570000000     0.089920000000     0.875580000000     0.0140843  
C741     C      0.263880000000     0.139450000000     0.398720000000     0.0158598  
C742     C      0.170340000000     0.114340000000     0.884150000000    -0.102809   
C743     C      0.155880000000     0.154990000000     0.445350000000    -0.104139   
C744     C      0.222430000000     0.163900000000     0.907590000000    -0.103796   
C745     C      0.146790000000     0.137960000000     0.422430000000     0.0224029  
C746     C      0.179500000000     0.135670000000     0.906420000000     0.0220962  
C747     C      0.080210000000     0.187520000000     0.917290000000     0.0131407  
C748     C      0.096550000000     0.138910000000     0.417240000000    -0.103978   
C749     C      0.950200000000     0.380310000000     0.490310000000     0.0173969  
C750     C      0.924420000000     0.231820000000     0.559580000000     0.0138623  
C751     C      0.854890000000     0.246930000000     0.536420000000     0.00877135 
C752     C      0.937320000000     0.281190000000     0.559180000000    -0.101201   
C753     C      0.921350000000     0.347160000000     0.503340000000    -0.106486   
C754     C      0.866300000000     0.296510000000     0.535810000000    -0.0831467  
C755     C      0.943260000000     0.329070000000     0.524420000000     0.0247171  
C756     C      0.917540000000     0.303840000000     0.538720000000     0.0143063  
C757     C      0.019650000000     0.364910000000     0.512380000000     0.0166869  
C758     C      0.995110000000     0.331320000000     0.527230000000    -0.102902   
C759     C      0.967480000000     0.389280000000     0.870830000000     0.0136157  
C760     C      0.037460000000     0.499750000000     0.787120000000     0.0132194  
C761     C      0.976960000000     0.538150000000     0.808660000000     0.0146492  
C762     C      0.030160000000     0.456410000000     0.800110000000    -0.101428   
C763     C      0.972270000000     0.432760000000     0.857830000000    -0.0996079  
C764     C      0.963570000000     0.495570000000     0.820720000000    -0.101049   
C765     C      0.004190000000     0.429880000000     0.837840000000     0.0170878  
C766     C      0.001830000000     0.461230000000     0.821190000000     0.016972   
C767     C      0.035380000000     0.356240000000     0.853210000000     0.0143016  
C768     C      0.044540000000     0.397690000000     0.839220000000    -0.0995637  
H1       H      0.317970000000     0.090500000000     0.227560000000     0.0436073  
H2       H      0.374410000000     0.938600000000     0.185910000000     0.0263417  
H3       H      0.261730000000     0.004270000000     0.271170000000     0.0283448  
H4       H      0.310540000000     0.954950000000     0.252230000000     0.0425396  
H5       H      0.346170000000     0.934150000000     0.221910000000     0.0440442  
H6       H      0.352800000000     0.062940000000     0.197890000000     0.0417978  
H7       H      0.313460000000     0.118100000000     0.266130000000     0.0393689  
H8       H      0.324200000000     0.904470000000     0.184050000000     0.039482   
H9       H      0.361790000000     0.982730000000     0.261170000000     0.0500475  
H10      H      0.292870000000     0.051140000000     0.194280000000     0.0516757  
H11      H      0.303860000000     0.983900000000     0.290080000000     0.035227   
H12      H      0.375760000000     0.012800000000     0.171060000000     0.0264553  
H13      H      0.367080000000     0.076300000000     0.243890000000     0.0501675  
H14      H      0.287780000000     0.943130000000     0.213560000000     0.0547232  
H15      H      0.325670000000     0.037670000000     0.159260000000     0.0406529  
H16      H      0.266610000000     0.083560000000     0.257460000000     0.0286247  
H17      H      0.230500000000     0.969440000000     0.999560000000     0.0439389  
H18      H      0.415240000000     0.988900000000     0.995850000000     0.0283284  
H19      H      0.220780000000     0.064510000000     0.954530000000     0.0240853  
H20      H      0.299470000000     0.064810000000     0.961430000000     0.0436413  
H21      H      0.369020000000     0.034520000000     0.972920000000     0.0409292  
H22      H      0.296960000000     0.945560000000     0.013910000000     0.0404401  
H23      H      0.177170000000     0.952020000000     0.967620000000     0.0395764  
H24      H      0.427310000000     0.045950000000     0.002690000000     0.0406269  
H25      H      0.308770000000     0.013860000000     0.946660000000     0.0476119  
H26      H      0.289820000000     0.998700000000     0.027080000000     0.0527499  
H27      H      0.246860000000     0.049660000000     0.928790000000     0.0363813  
H28      H      0.374570000000     0.941250000000     0.021620000000     0.0324995  
H29      H      0.254540000000     0.937290000000     0.977370000000     0.0490898  
H30      H      0.349450000000     0.068020000000     0.995630000000     0.0534871  
H31      H      0.350330000000     0.963380000000     0.046460000000     0.0404688  
H32      H      0.180910000000     0.008880000000     0.976600000000     0.0259387  
H33      H      0.490610000000     0.072310000000     0.177410000000     0.0433117  
H34      H      0.432670000000     0.903800000000     0.209230000000     0.0306029  
H35      H      0.542710000000     0.998980000000     0.126350000000     0.0245703  
H36      H      0.500310000000     0.945420000000     0.145350000000     0.0427722  
H37      H      0.458880000000     0.916370000000     0.174080000000     0.0472584  
H38      H      0.444500000000     0.038360000000     0.203220000000     0.0425111  
H39      H      0.495430000000     0.109550000000     0.140940000000     0.0391841  
H40      H      0.488520000000     0.880140000000     0.210800000000     0.0542827  
H41      H      0.446000000000     0.969220000000     0.138320000000     0.0532032  
H42      H      0.503520000000     0.026920000000     0.209660000000     0.0524932  
H43      H      0.497010000000     0.983240000000     0.108090000000     0.0361775  
H44      H      0.417580000000     0.977650000000     0.224120000000     0.0255757  
H45      H      0.440230000000     0.063960000000     0.160850000000     0.0521278  
H46      H      0.517190000000     0.925270000000     0.182700000000     0.053097   
H47      H      0.459080000000     0.005350000000     0.241090000000     0.0373882  
H48      H      0.540260000000     0.070390000000     0.146440000000     0.026134   
H49      H      0.346260000000     0.948540000000     0.953880000000     0.0453696  
H50      H      0.472660000000     0.959000000000     0.886330000000     0.0258424  
H51      H      0.350390000000     0.819560000000     0.940710000000     0.0309699  
H52      H      0.384730000000     0.851530000000     0.910000000000     0.0438396  
H53      H      0.420730000000     0.898320000000     0.888590000000     0.0401398  
H54      H      0.391090000000     0.001210000000     0.937390000000     0.0413189  
H55      H      0.362150000000     0.897560000000     0.986840000000     0.032486   
H56      H      0.439320000000     0.957940000000     0.861460000000     0.0340233  
H57      H      0.438130000000     0.861970000000     0.924290000000     0.0486802  
H58      H      0.353280000000     0.002030000000     0.913920000000     0.0536739  
H59      H      0.407550000000     0.798330000000     0.941720000000     0.0507687  
H60      H      0.457190000000     0.015800000000     0.915180000000     0.0273189  
H61      H      0.405220000000     0.941780000000     0.961820000000     0.05056    
H62      H      0.372200000000     0.931520000000     0.881540000000     0.05418    
H63      H      0.414630000000     0.057680000000     0.910490000000     0.040094   
H64      H      0.325500000000     0.876750000000     0.965310000000     0.0241184  
H65      H      0.360100000000     0.949090000000     0.312000000000     0.0613889  
H66      H      0.411670000000     0.778530000000     0.295870000000     0.0286632  
H67      H      0.284510000000     0.836170000000     0.339760000000     0.0285961  
H68      H      0.366580000000     0.816190000000     0.341240000000     0.0434052  
H69      H      0.336070000000     0.794400000000     0.311010000000     0.0449579  
H70      H      0.393300000000     0.918990000000     0.285160000000     0.04655    
H71      H      0.301350000000     0.968990000000     0.340320000000     0.047414   
H72      H      0.368250000000     0.755820000000     0.278590000000     0.041381   
H73      H      0.379200000000     0.865020000000     0.356010000000     0.0466664  
H74      H      0.347320000000     0.891870000000     0.270690000000     0.0481048  
H75      H      0.304940000000     0.839400000000     0.867630000000     0.0386187  
H76      H      0.447180000000     0.863860000000     0.276800000000     0.0353385  
H77      H      0.377890000000     0.938890000000     0.339510000000     0.0633292  
H78      H      0.316950000000     0.816420000000     0.285590000000     0.0521649  
H79      H      0.417950000000     0.877270000000     0.251740000000     0.0386266  
H80      H      0.281480000000     0.930180000000     0.320010000000     0.032505   
H81      H      0.562240000000     0.775050000000     0.102540000000     0.0441181  
H82      H      0.396920000000     0.841530000000     0.133810000000     0.0273548  
H83      H      0.489200000000     0.692170000000     0.067110000000     0.0255709  
H84      H      0.432260000000     0.726000000000     0.088420000000     0.0420498  
H85      H      0.399420000000     0.780040000000     0.109930000000     0.0417853  
H86      H      0.532000000000     0.831170000000     0.123670000000     0.0438144  
H87      H      0.584830000000     0.769700000000     0.061830000000     0.0367211  
H88      H      0.375790000000     0.795150000000     0.149530000000     0.0392631  
H89      H      0.433600000000     0.777170000000     0.072870000000     0.0497384  
H90      H      0.524790000000     0.783390000000     0.141320000000     0.0543129  
H91      H      0.452530000000     0.718490000000     0.047370000000     0.0365288  
H92      H      0.472300000000     0.871240000000     0.140230000000     0.0221274  
H93      H      0.539820000000     0.817310000000     0.084340000000     0.0548905  
H94      H      0.423760000000     0.743460000000     0.130340000000     0.0518015  
H95      H      0.507960000000     0.849930000000     0.162130000000     0.0352218  
H96      H      0.563370000000     0.720320000000     0.074980000000     0.0237053  
H97      H      0.333510000000     0.806700000000     0.084320000000     0.0484168  
H98      H      0.289820000000     0.753690000000     0.995260000000     0.0274948  
H99      H      0.322510000000     0.900460000000     0.071960000000     0.0336536  
H100     H      0.308410000000     0.879910000000     0.034070000000     0.0429753  
H101     H      0.298750000000     0.828120000000     0.007140000000     0.0444692  
H102     H      0.354420000000     0.740570000000     0.058630000000     0.0429759  
H103     H      0.228850000000     0.810890000000     0.079510000000     0.0328711  
H104     H      0.333710000000     0.777890000000     0.978630000000     0.0423692  
H105     H      0.251750000000     0.859480000000     0.039940000000     0.050049   
H106     H      0.392980000000     0.765310000000     0.039610000000     0.0637981  
H107     H      0.270040000000     0.924720000000     0.062850000000     0.0388856  
H108     H      0.314910000000     0.701270000000     0.028030000000     0.0263947  
H109     H      0.294050000000     0.763760000000     0.075440000000     0.0438557  
H110     H      0.359810000000     0.824670000000     0.008860000000     0.0616834  
H111     H      0.374350000000     0.687290000000     0.030140000000     0.0385574  
H112     H      0.261430000000     0.810330000000     0.104580000000     0.0390264  
H113     H      0.536300000000     0.724790000000     0.362130000000     0.0438257  
H114     H      0.455370000000     0.887510000000     0.341100000000     0.0244791  
H115     H      0.563610000000     0.786830000000     0.919320000000     0.0292772  
H116     H      0.520600000000     0.841630000000     0.901710000000     0.0429607  
H117     H      0.493180000000     0.876460000000     0.874160000000     0.0407046  
H118     H      0.496920000000     0.757850000000     0.335440000000     0.0438905  
H119     H      0.528200000000     0.677320000000     0.895950000000     0.0387083  
H120     H      0.504580000000     0.922900000000     0.339940000000     0.0428072  
H121     H      0.468290000000     0.809690000000     0.902430000000     0.0484833  
H122     H      0.550460000000     0.786530000000     0.331670000000     0.0542481  
H123     H      0.512630000000     0.795030000000     0.935210000000     0.0528406  
H124     H      0.453360000000     0.816990000000     0.320800000000     0.0266016  
H125     H      0.479590000000     0.723980000000     0.373570000000     0.05073    
H126     H      0.549010000000     0.873460000000     0.862110000000     0.0537286  
H127     H      0.497710000000     0.803400000000     0.301410000000     0.042641   
H128     H      0.572580000000     0.718570000000     0.896650000000     0.0254509  
H129     H      0.684760000000     0.632370000000     0.284720000000     0.0425435  
H130     H      0.644630000000     0.728830000000     0.211700000000     0.0249658  
H131     H      0.645010000000     0.540280000000     0.234710000000     0.0289608  
H132     H      0.696130000000     0.591510000000     0.214780000000     0.0442772  
H133     H      0.672930000000     0.657370000000     0.207390000000     0.0435058  
H134     H      0.652780000000     0.690990000000     0.273020000000     0.0413813  
H135     H      0.690630000000     0.553020000000     0.295120000000     0.0396742  
H136     H      0.602810000000     0.699370000000     0.195680000000     0.0391307  
H137     H      0.740490000000     0.582760000000     0.234260000000     0.0540813  
H138     H      0.604240000000     0.655880000000     0.267530000000     0.0508605  
H139     H      0.697510000000     0.514100000000     0.226940000000     0.0415561  
H140     H      0.628290000000     0.748590000000     0.250950000000     0.0282355  
H141     H      0.734360000000     0.607260000000     0.273980000000     0.0512334  
H142     H      0.619230000000     0.630330000000     0.213420000000     0.0525864  
H143     H      0.577120000000     0.729260000000     0.263830000000     0.0412664  
H144     H      0.640010000000     0.564410000000     0.279420000000     0.0284143  
H145     H      0.543090000000     0.184500000000     0.281930000000     0.042694   
H146     H      0.532560000000     0.361500000000     0.257190000000     0.0251681  
H147     H      0.485040000000     0.236250000000     0.338760000000     0.0275238  
H148     H      0.464970000000     0.291890000000     0.312660000000     0.0441628  
H149     H      0.490330000000     0.334680000000     0.286460000000     0.0438694  
H150     H      0.558150000000     0.234190000000     0.255140000000     0.0433552  
H151     H      0.502540000000     0.130950000000     0.305500000000     0.0388802  
H152     H      0.556340000000     0.389000000000     0.280880000000     0.0383565  
H153     H      0.432100000000     0.254610000000     0.295870000000     0.0535393  
H154     H      0.596200000000     0.243330000000     0.277990000000     0.0507491  
H155     H      0.424370000000     0.236030000000     0.334890000000     0.0413973  
H156     H      0.574530000000     0.301850000000     0.238530000000     0.0248029  
H157     H      0.483200000000     0.183590000000     0.276100000000     0.0518963  
H158     H      0.538770000000     0.329110000000     0.304770000000     0.0523074  
H159     H      0.628840000000     0.283790000000     0.248790000000     0.03397    
H160     H      0.532410000000     0.173290000000     0.320790000000     0.0255991  
H161     H      0.661120000000     0.594530000000     0.055870000000     0.0429278  
H162     H      0.539610000000     0.527780000000     0.996680000000     0.0290481  
H163     H      0.621370000000     0.498720000000     0.092580000000     0.0250939  
H164     H      0.563990000000     0.496870000000     0.065710000000     0.0435392  
H165     H      0.528450000000     0.510860000000     0.034830000000     0.0442077  
H166     H      0.627700000000     0.619160000000     0.026470000000     0.0419078  
H167     H      0.726660000000     0.540570000000     0.065990000000     0.0392737  
H168     H      0.482950000000     0.542990000000     0.004780000000     0.0412476  
H169     H      0.599720000000     0.471260000000     0.045060000000     0.0535139  
H170     H      0.572470000000     0.634570000000     0.036090000000     0.0528265  
H171     H      0.623330000000     0.444140000000     0.080590000000     0.0374273  
H172     H      0.599730000000     0.593740000000     0.991540000000     0.0259484  
H173     H      0.678340000000     0.554130000000     0.035570000000     0.0511193  
H174     H      0.509190000000     0.565730000000     0.041430000000     0.0523187  
H175     H      0.579660000000     0.648980000000     0.996730000000     0.036157   
H176     H      0.682880000000     0.552310000000     0.085750000000     0.025976   
H177     H      0.628980000000     0.235990000000     0.094820000000     0.0469645  
H178     H      0.501330000000     0.238630000000     0.025480000000     0.0272239  
H179     H      0.717580000000     0.198480000000     0.046750000000     0.0380089  
H180     H      0.648320000000     0.201920000000     0.028080000000     0.0426926  
H181     H      0.575090000000     0.211570000000     0.021210000000     0.0430806  
H182     H      0.557350000000     0.262460000000     0.086480000000     0.0445987  
H183     H      0.707860000000     0.267650000000     0.096580000000     0.0416823  
H184     H      0.494660000000     0.179660000000     0.021990000000     0.040952   
H185     H      0.646460000000     0.261610000000     0.027670000000     0.0528093  
H186     H      0.549500000000     0.203000000000     0.087850000000     0.0521076  
H187     H      0.725150000000     0.243540000000     0.027560000000     0.0400764  
H188     H      0.494500000000     0.272820000000     0.062050000000     0.0274764  
H189     H      0.635240000000     0.288850000000     0.080910000000     0.0584796  
H190     H      0.566310000000     0.164410000000     0.039040000000     0.0502442  
H191     H      0.475920000000     0.240240000000     0.085320000000     0.0409062  
H192     H      0.703170000000     0.212280000000     0.085450000000     0.0113959  
H193     H      0.034750000000     0.044620000000     0.319510000000     0.0440585  
H194     H      0.853770000000     0.049010000000     0.840710000000     0.0256992  
H195     H      0.049520000000     0.061170000000     0.385570000000     0.0226932  
H196     H      0.973390000000     0.033000000000     0.885070000000     0.04377    
H197     H      0.907470000000     0.036080000000     0.868350000000     0.0437002  
H198     H      0.965430000000     0.050820000000     0.306530000000     0.0435561  
H199     H      0.106210000000     0.012660000000     0.334880000000     0.0407019  
H200     H      0.847830000000     0.094430000000     0.859730000000     0.0381097  
H201     H      0.989740000000     0.981040000000     0.872930000000     0.0535068  
H202     H      0.976340000000     0.104860000000     0.318420000000     0.0522301  
H203     H      0.046360000000     0.008670000000     0.899620000000     0.038756   
H204     H      0.887400000000     0.060590000000     0.804350000000     0.0256959  
H205     H      0.028300000000     0.988520000000     0.829050000000     0.0524213  
H206     H      0.926760000000     0.093220000000     0.369350000000     0.0521815  
H207     H      0.910000000000     0.113850000000     0.296530000000     0.0389389  
H208     H      0.088330000000     0.064080000000     0.347090000000     0.0255152  
H209     H      0.681780000000     0.197890000000     0.250670000000     0.0416657  
H210     H      0.670160000000     0.072500000000     0.310400000000     0.0292107  
H211     H      0.659590000000     0.271050000000     0.297340000000     0.0294727  
H212     H      0.624960000000     0.205050000000     0.311050000000     0.04319    
H213     H      0.613640000000     0.131960000000     0.314650000000     0.0442374  
H214     H      0.664150000000     0.127880000000     0.245820000000     0.0427319  
H215     H      0.759240000000     0.235660000000     0.264220000000     0.0405272  
H216     H      0.614220000000     0.049830000000     0.314900000000     0.0441507  
H217     H      0.678900000000     0.181080000000     0.319160000000     0.0527917  
H218     H      0.609590000000     0.106800000000     0.252800000000     0.051629   
H219     H      0.685270000000     0.260130000000     0.323750000000     0.0405344  
H220     H      0.701900000000     0.071320000000     0.269310000000     0.0278494  
H221     H      0.725600000000     0.166840000000     0.264780000000     0.0495612  
H222     H      0.579530000000     0.109840000000     0.292830000000     0.0517605  
H223     H      0.666440000000     0.046630000000     0.248380000000     0.0406231  
H224     H      0.706110000000     0.264440000000     0.263420000000     0.0445359  
H225     H      0.886120000000     0.347050000000     0.931160000000     0.0523858  
H226     H      0.735650000000     0.429560000000     0.962820000000     0.0250221  
H227     H      0.803990000000     0.242300000000     0.421610000000     0.028075   
H228     H      0.747940000000     0.296460000000     0.929560000000     0.0439946  
H229     H      0.726260000000     0.361800000000     0.943830000000     0.0423037  
H230     H      0.860940000000     0.404180000000     0.949840000000     0.0473399  
H231     H      0.903310000000     0.303910000000     0.896820000000     0.042314   
H232     H      0.707970000000     0.391750000000     0.981450000000     0.0393692  
H233     H      0.759850000000     0.328830000000     0.905310000000     0.0511153  
H234     H      0.857430000000     0.360030000000     0.969920000000     0.0496957  
H235     H      0.767670000000     0.249460000000     0.397940000000     0.0423844  
H236     H      0.815400000000     0.452320000000     0.969440000000     0.0305424  
H237     H      0.856810000000     0.366050000000     0.906850000000     0.0522092  
H238     H      0.747450000000     0.328730000000     0.966610000000     0.0538227  
H239     H      0.848670000000     0.426330000000     0.990580000000     0.0364154  
H240     H      0.885380000000     0.272150000000     0.920410000000     0.0300975  
H241     H      0.969720000000     0.006380000000     0.087970000000     0.0439679  
H242     H      0.108020000000     0.112010000000     0.122470000000     0.0244678  
H243     H      0.909660000000     0.021580000000     0.146430000000     0.0254954  
H244     H      0.975790000000     0.064120000000     0.151850000000     0.0436456  
H245     H      0.042780000000     0.096540000000     0.143090000000     0.0432998  
H246     H      0.036550000000     0.041190000000     0.079330000000     0.0436592  
H247     H      0.884680000000     0.018680000000     0.086610000000     0.0382845  
H248     H      0.127270000000     0.079620000000     0.145670000000     0.0352944  
H249     H      0.957770000000     0.108220000000     0.133640000000     0.0544004  
H250     H      0.052640000000     0.995010000000     0.096700000000     0.0519731  
H251     H      0.890920000000     0.077720000000     0.150860000000     0.0382591  
H252     H      0.104530000000     0.080600000000     0.085790000000     0.0242851  
H253     H      0.952660000000     0.063450000000     0.084290000000     0.0535342  
H254     H      0.057210000000     0.038890000000     0.147400000000     0.0519484  
H255     H      0.121210000000     0.024040000000     0.080710000000     0.0379426  
H256     H      0.906360000000     0.988080000000     0.109930000000     0.0259656  
H257     H      0.527040000000     0.028660000000     0.066020000000     0.0478159  
H258     H      0.696170000000     0.043280000000     0.042810000000     0.0298934  
H259     H      0.508480000000     0.022930000000     0.003820000000     0.0296181  
H260     H      0.581160000000     0.054690000000     0.004280000000     0.0448082  
H261     H      0.644340000000     0.079980000000     0.017090000000     0.0434335  
H262     H      0.579130000000     0.064370000000     0.082500000000     0.043734   
H263     H      0.500160000000     0.950470000000     0.053910000000     0.0428724  
H264     H      0.715510000000     0.098290000000     0.035970000000     0.0398716  
H265     H      0.609430000000     0.003520000000     0.012030000000     0.0537992  
H266     H      0.598620000000     0.116940000000     0.073140000000     0.0505634  
H267     H      0.545150000000     0.986160000000     0.988800000000     0.039449   
H268     H      0.656250000000     0.034320000000     0.083690000000     0.0286367  
H269     H      0.568900000000     0.985230000000     0.063790000000     0.0509983  
H270     H      0.637080000000     0.126050000000     0.035070000000     0.0482521  
H271     H      0.652380000000     0.084490000000     0.099620000000     0.0397333  
H272     H      0.478290000000     0.999180000000     0.040760000000     0.0356268  
H273     H      0.816080000000     0.244750000000     0.222250000000     0.0443124  
H274     H      0.723850000000     0.298840000000     0.145670000000     0.0297233  
H275     H      0.870480000000     0.368640000000     0.220250000000     0.0225224  
H276     H      0.834210000000     0.360770000000     0.186480000000     0.039849   
H277     H      0.786410000000     0.338300000000     0.159970000000     0.0432513  
H278     H      0.757900000000     0.222100000000     0.199680000000     0.0429686  
H279     H      0.819900000000     0.287750000000     0.258200000000     0.0473366  
H280     H      0.768580000000     0.294150000000     0.125660000000     0.0504229  
H281     H      0.778080000000     0.369970000000     0.197440000000     0.0519542  
H282     H      0.804590000000     0.210960000000     0.181300000000     0.0540083  
H283     H      0.825970000000     0.409340000000     0.221920000000     0.0394401  
H284     H      0.705330000000     0.235060000000     0.170270000000     0.0259207  
H285     H      0.764990000000     0.275310000000     0.228960000000     0.0532325  
H286     H      0.826880000000     0.295470000000     0.153750000000     0.0492961  
H287     H      0.732720000000     0.182290000000     0.166220000000     0.0403989  
H288     H      0.864730000000     0.298260000000     0.238750000000     0.0254643  
H289     H      0.750010000000     0.765710000000     0.288840000000     0.0433026  
H290     H      0.802700000000     0.696990000000     0.209560000000     0.0258759  
H291     H      0.751000000000     0.865920000000     0.241900000000     0.0276386  
H292     H      0.745890000000     0.799750000000     0.218270000000     0.0441514  
H293     H      0.812190000000     0.775970000000     0.218470000000     0.0440616  
H294     H      0.765260000000     0.698560000000     0.275660000000     0.0425701  
H295     H      0.697420000000     0.828090000000     0.296270000000     0.0389737  
H296     H      0.861640000000     0.713070000000     0.208270000000     0.0390469  
H297     H      0.694510000000     0.782910000000     0.230830000000     0.0530604  
H298     H      0.823990000000     0.716670000000     0.276140000000     0.0517229  
H299     H      0.697530000000     0.863930000000     0.227370000000     0.0409237  
H300     H      0.775970000000     0.651930000000     0.244290000000     0.0269111  
H301     H      0.695910000000     0.759060000000     0.275060000000     0.0486867  
H302     H      0.852340000000     0.763910000000     0.239430000000     0.0532682  
H303     H      0.817610000000     0.638210000000     0.265040000000     0.0406752  
H304     H      0.750790000000     0.844430000000     0.284270000000     0.0277076  
H305     H      0.112310000000     0.706940000000     0.175830000000     0.0449871  
H306     H      0.056390000000     0.884770000000     0.188960000000     0.0255018  
H307     H      0.115900000000     0.705190000000     0.244180000000     0.025979   
H308     H      0.098510000000     0.777450000000     0.235230000000     0.0437833  
H309     H      0.081880000000     0.838780000000     0.217040000000     0.0436149  
H310     H      0.077910000000     0.764230000000     0.157020000000     0.0450174  
H311     H      0.089640000000     0.636900000000     0.194880000000     0.0421054  
H312     H      0.111550000000     0.906580000000     0.195960000000     0.0384001  
H313     H      0.040420000000     0.765620000000     0.227500000000     0.0521438  
H314     H      0.135350000000     0.784470000000     0.160800000000     0.0556427  
H315     H      0.058260000000     0.710030000000     0.253590000000     0.0378332  
H316     H      0.046450000000     0.837360000000     0.155550000000     0.0263092  
H317     H      0.052110000000     0.704030000000     0.181850000000     0.05472    
H318     H      0.139400000000     0.835750000000     0.207060000000     0.0528543  
H319     H      0.092080000000     0.832960000000     0.135920000000     0.0409287  
H320     H      0.133070000000     0.668730000000     0.208840000000     0.0271237  
H321     H      0.961360000000     0.448990000000     0.105180000000     0.0431453  
H322     H      0.857100000000     0.476090000000     0.178510000000     0.0269319  
H323     H      0.908320000000     0.326520000000     0.111840000000     0.0262957  
H324     H      0.900810000000     0.358370000000     0.145970000000     0.0425208  
H325     H      0.893660000000     0.405290000000     0.173070000000     0.0415374  
H326     H      0.947820000000     0.506410000000     0.127460000000     0.041816   
H327     H      0.920080000000     0.417120000000     0.071510000000     0.0374418  
H328     H      0.891410000000     0.462580000000     0.202150000000     0.0349384  
H329     H      0.850830000000     0.389990000000     0.138640000000     0.0478738  
H330     H      0.983140000000     0.490680000000     0.150400000000     0.057728   
H331     H      0.847610000000     0.329220000000     0.114450000000     0.0421527  
H332     H      0.889050000000     0.535690000000     0.150680000000     0.0271237  
H333     H      0.902530000000     0.465480000000     0.101750000000     0.0499494  
H334     H      0.948850000000     0.427160000000     0.178730000000     0.0559797  
H335     H      0.943010000000     0.561060000000     0.156960000000     0.0415271  
H336     H      0.949760000000     0.378870000000     0.089160000000     0.0245456  
H337     H      0.723460000000     0.798870000000     0.974990000000     0.0440099  
H338     H      0.716600000000     0.649310000000     0.028180000000     0.0230444  
H339     H      0.630310000000     0.742950000000     0.939050000000     0.0253356  
H340     H      0.643920000000     0.684600000000     0.964460000000     0.0454274  
H341     H      0.670730000000     0.653690000000     0.996200000000     0.0418518  
H342     H      0.753960000000     0.767800000000     0.006290000000     0.0441916  
H343     H      0.654260000000     0.849180000000     0.966900000000     0.0394588  
H344     H      0.733500000000     0.604490000000     0.010350000000     0.0391951  
H345     H      0.615390000000     0.713150000000     0.986770000000     0.0567993  
H346     H      0.781680000000     0.736160000000     0.984990000000     0.0540975  
H347     H      0.577420000000     0.731660000000     0.953010000000     0.0469858  
H348     H      0.765310000000     0.713480000000     0.033630000000     0.0261384  
H349     H      0.680600000000     0.803050000000     0.996140000000     0.0528675  
H350     H      0.717960000000     0.647690000000     0.977560000000     0.0545693  
H351     H      0.818720000000     0.718710000000     0.019390000000     0.039682   
H352     H      0.672000000000     0.810460000000     0.946030000000     0.0254855  
H353     H      0.076700000000     0.720360000000     0.961300000000     0.0439828  
H354     H      0.095250000000     0.760490000000     0.872730000000     0.0262898  
H355     H      0.945830000000     0.758870000000     0.951460000000     0.0276578  
H356     H      0.970700000000     0.755200000000     0.914520000000     0.0437976  
H357     H      0.023440000000     0.759080000000     0.888920000000     0.0436042  
H358     H      0.125800000000     0.726240000000     0.934460000000     0.0435013  
H359     H      0.019760000000     0.680000000000     0.983870000000     0.0390226  
H360     H      0.074750000000     0.816640000000     0.870880000000     0.0385288  
H361     H      0.979410000000     0.696010000000     0.915110000000     0.0523327  
H362     H      0.113950000000     0.783860000000     0.940500000000     0.0540178  
H363     H      0.914360000000     0.715710000000     0.937660000000     0.0388263  
H364     H      0.154890000000     0.740590000000     0.899530000000     0.0257279  
H365     H      0.054440000000     0.671480000000     0.947920000000     0.0519171  
H366     H      0.031950000000     0.810060000000     0.904120000000     0.0517987  
H367     H      0.179620000000     0.781980000000     0.917270000000     0.0410734  
H368     H      0.007890000000     0.737740000000     0.978970000000     0.0279711  
H369     H      0.884900000000     0.468090000000     0.387480000000     0.0424912  
H370     H      0.745650000000     0.350580000000     0.369180000000     0.0310347  
H371     H      0.779780000000     0.542260000000     0.914740000000     0.028083   
H372     H      0.745540000000     0.471140000000     0.912510000000     0.0439871  
H373     H      0.734640000000     0.408140000000     0.894560000000     0.0423522  
H374     H      0.865500000000     0.409090000000     0.369440000000     0.0429365  
H375     H      0.907840000000     0.519590000000     0.916790000000     0.0406947  
H376     H      0.701710000000     0.384540000000     0.357340000000     0.0399101  
H377     H      0.785600000000     0.445870000000     0.930960000000     0.0530393  
H378     H      0.839040000000     0.452650000000     0.353340000000     0.0509703  
H379     H      0.771360000000     0.521540000000     0.942250000000     0.0400691  
H380     H      0.823940000000     0.352560000000     0.353870000000     0.0237472  
H381     H      0.878650000000     0.444290000000     0.414440000000     0.0518595  
H382     H      0.730700000000     0.450710000000     0.873600000000     0.0520091  
H383     H      0.837020000000     0.388570000000     0.331150000000     0.0442088  
H384     H      0.863770000000     0.540360000000     0.898930000000     0.0276346  
H385     H      0.362730000000     0.466170000000     0.180860000000     0.0434796  
H386     H      0.306550000000     0.631140000000     0.199720000000     0.0289894  
H387     H      0.280590000000     0.427960000000     0.225230000000     0.0265403  
H388     H      0.282380000000     0.504350000000     0.233310000000     0.0439013  
H389     H      0.294600000000     0.575720000000     0.227670000000     0.0443339  
H390     H      0.388880000000     0.532500000000     0.175870000000     0.0434925  
H391     H      0.298570000000     0.415820000000     0.164890000000     0.0395404  
H392     H      0.328370000000     0.649580000000     0.225950000000     0.0418139  
H393     H      0.246680000000     0.519160000000     0.210010000000     0.0521684  
H394     H      0.414280000000     0.544240000000     0.202140000000     0.0512964  
H395     H      0.222830000000     0.447480000000     0.223170000000     0.0395578  
H396     H      0.366390000000     0.606970000000     0.169530000000     0.0274905  
H397     H      0.315990000000     0.491980000000     0.166300000000     0.0508497  
H398     H      0.353690000000     0.574150000000     0.235340000000     0.0519817  
H399     H      0.425400000000     0.606690000000     0.177400000000     0.0388146  
H400     H      0.321840000000     0.405290000000     0.191790000000     0.0264964  
H401     H      0.188390000000     0.191910000000     0.071120000000     0.0441661  
H402     H      0.168080000000     0.246770000000     0.167100000000     0.0353911  
H403     H      0.274740000000     0.155970000000     0.126770000000     0.0296375  
H404     H      0.201210000000     0.115620000000     0.132640000000     0.0502568  
H405     H      0.136140000000     0.184460000000     0.146150000000     0.0491925  
H406     H      0.127630000000     0.221040000000     0.089470000000     0.0436959  
H407     H      0.267460000000     0.168740000000     0.061430000000     0.0385545  
H408     H      0.211380000000     0.256430000000     0.147000000000     0.0351684  
H409     H      0.205260000000     0.091770000000     0.106080000000     0.0584537  
H410     H      0.176970000000     0.255330000000     0.095470000000     0.0529509  
H411     H      0.281230000000     0.097390000000     0.122230000000     0.0448454  
H412     H      0.089750000000     0.244060000000     0.123030000000     0.0290818  
H413     H      0.195810000000     0.133290000000     0.071950000000     0.0512572  
H414     H      0.196980000000     0.178680000000     0.148710000000     0.0458543  
H415     H      0.107400000000     0.292250000000     0.107780000000     0.0389804  
H416     H      0.265870000000     0.205280000000     0.084790000000     0.0311758  
H417     H      0.015210000000     0.303790000000     0.267360000000     0.0443772  
H418     H      0.006510000000     0.458940000000     0.206710000000     0.0384059  
H419     H      0.940660000000     0.398690000000     0.305030000000     0.0272466  
H420     H      0.925080000000     0.417250000000     0.268210000000     0.0491958  
H421     H      0.943640000000     0.417080000000     0.222770000000     0.0523248  
H422     H      0.988020000000     0.302160000000     0.227850000000     0.0442735  
H423     H      0.987650000000     0.282620000000     0.304040000000     0.0396406  
H424     H      0.046470000000     0.437300000000     0.226190000000     0.0410074  
H425     H      0.893840000000     0.367470000000     0.262970000000     0.0592129  
H426     H      0.041820000000     0.330510000000     0.232210000000     0.0518814  
H427     H      0.882810000000     0.382060000000     0.300780000000     0.0439917  
H428     H      0.968940000000     0.352360000000     0.197000000000     0.0246297  
H429     H      0.956320000000     0.286300000000     0.265870000000     0.0529544  
H430     H      0.976210000000     0.441170000000     0.245100000000     0.0549595  
H431     H      0.021100000000     0.322860000000     0.192450000000     0.0396908  
H432     H      0.003280000000     0.340410000000     0.302540000000     0.0242263  
H433     H      0.040660000000     0.464940000000     0.040470000000     0.043276   
H434     H      0.103210000000     0.566890000000     0.109120000000     0.0263857  
H435     H      0.915390000000     0.492890000000     0.063290000000     0.0317144  
H436     H      0.960250000000     0.535650000000     0.087440000000     0.0409361  
H437     H      0.024100000000     0.560530000000     0.103130000000     0.0437143  
H438     H      0.103250000000     0.488880000000     0.057420000000     0.0442913  
H439     H      0.982050000000     0.479490000000     0.011240000000     0.039722   
H440     H      0.079460000000     0.541950000000     0.133540000000     0.0399117  
H441     H      0.977580000000     0.574590000000     0.066430000000     0.0530317  
H442     H      0.082240000000     0.446920000000     0.076140000000     0.0513304  
H443     H      0.901060000000     0.549880000000     0.058550000000     0.0419933  
H444     H      0.149220000000     0.523360000000     0.083800000000     0.0262766  
H445     H      0.037460000000     0.521930000000     0.031500000000     0.0533755  
H446     H      0.022030000000     0.503540000000     0.112560000000     0.0482055  
H447     H      0.157700000000     0.464810000000     0.088070000000     0.0395453  
H448     H      0.962380000000     0.451470000000     0.035770000000     0.0290343  
H449     H      0.331500000000     0.486030000000     0.908610000000     0.0440807  
H450     H      0.174400000000     0.494040000000     0.956890000000     0.0283041  
H451     H      0.306600000000     0.611060000000     0.895790000000     0.0259152  
H452     H      0.238550000000     0.590050000000     0.912490000000     0.0430832  
H453     H      0.189000000000     0.549670000000     0.930160000000     0.0434416  
H454     H      0.285890000000     0.440070000000     0.924660000000     0.0446125  
H455     H      0.397670000000     0.537790000000     0.918050000000     0.0403503  
H456     H      0.128050000000     0.494980000000     0.937420000000     0.0390216  
H457     H      0.262420000000     0.588520000000     0.940040000000     0.0512277  
H458     H      0.242620000000     0.440460000000     0.903630000000     0.0527362  
H459     H      0.301820000000     0.645160000000     0.920000000000     0.0386676  
H460     H      0.233450000000     0.429200000000     0.953870000000     0.0285744  
H461     H      0.336800000000     0.503010000000     0.937130000000     0.052512   
H462     H      0.178540000000     0.513550000000     0.907090000000     0.0509706  
H463     H      0.224340000000     0.387860000000     0.932940000000     0.0415738  
H464     H      0.362840000000     0.550320000000     0.894440000000     0.0264469  
H465     H      0.191160000000     0.148300000000     0.951130000000     0.043761   
H466     H      0.217240000000     0.058980000000     0.885380000000     0.0392484  
H467     H      0.086470000000     0.201850000000     0.400590000000     0.0351234  
H468     H      0.087390000000     0.123710000000     0.401190000000     0.044728   
H469     H      0.142790000000     0.089020000000     0.385160000000     0.0462955  
H470     H      0.231250000000     0.175540000000     0.924400000000     0.0462729  
H471     H      0.142070000000     0.214920000000     0.963690000000     0.0359905  
H472     H      0.206130000000     0.079840000000     0.358150000000     0.0423546  
H473     H      0.077660000000     0.119900000000     0.930070000000     0.0493797  
H474     H      0.216720000000     0.194200000000     0.397400000000     0.0561712  
H475     H      0.042620000000     0.188060000000     0.419620000000     0.0353788  
H476     H      0.274600000000     0.114040000000     0.911020000000     0.0279747  
H477     H      0.133440000000     0.137220000000     0.957240000000     0.049871   
H478     H      0.159930000000     0.140450000000     0.372150000000     0.0524571  
H479     H      0.292380000000     0.163770000000     0.897320000000     0.0430464  
H480     H      0.173830000000     0.223610000000     0.439090000000     0.035504   
H481     H      0.889500000000     0.365020000000     0.007530000000     0.0584545  
H482     H      0.942680000000     0.214790000000     0.045920000000     0.0270989  
H483     H      0.017430000000     0.398200000000     0.020190000000     0.0232532  
H484     H      0.003880000000     0.340760000000     0.044490000000     0.0439842  
H485     H      0.974860000000     0.283060000000     0.060670000000     0.043189   
H486     H      0.851530000000     0.309840000000     0.020340000000     0.0423458  
H487     H      0.936370000000     0.383530000000     0.973270000000     0.0374114  
H488     H      0.936400000000     0.217030000000     0.075410000000     0.0387642  
H489     H      0.009220000000     0.297720000000     0.023850000000     0.0510951  
H490     H      0.848440000000     0.313060000000     0.049630000000     0.0390577  
H491     H      0.056400000000     0.356140000000     0.011510000000     0.038502   
H492     H      0.869560000000     0.230990000000     0.021470000000     0.0291578  
H493     H      0.913000000000     0.318560000000     0.992400000000     0.0515369  
H494     H      0.923040000000     0.297540000000     0.074050000000     0.0554719  
H495     H      0.817250000000     0.242740000000     0.035600000000     0.0479057  
H496     H      0.947060000000     0.413410000000     0.998270000000     0.0300561  
H497     H      0.937160000000     0.441680000000     0.352560000000     0.0407542  
H498     H      0.065550000000     0.518760000000     0.295190000000     0.0273624  
H499     H      0.012840000000     0.333450000000     0.343630000000     0.0323498  
H500     H      0.054420000000     0.385020000000     0.322740000000     0.0429972  
H501     H      0.064960000000     0.444060000000     0.303740000000     0.0440885  
H502     H      0.953760000000     0.506330000000     0.337580000000     0.043359   
H503     H      0.950450000000     0.396080000000     0.886860000000     0.0371178  
H504     H      0.048890000000     0.491360000000     0.270130000000     0.0384897  
H505     H      0.074170000000     0.415870000000     0.346350000000     0.0521516  
H506     H      0.933170000000     0.480690000000     0.312540000000     0.0516571  
H507     H      0.068010000000     0.338510000000     0.356290000000     0.0405917  
H508     H      0.003000000000     0.556000000000     0.318750000000     0.027556   
H509     H      0.985260000000     0.459080000000     0.369120000000     0.0507489  
H510     H      0.012930000000     0.431870000000     0.289160000000     0.0506579  
H511     H      0.946490000000     0.559950000000     0.307400000000     0.0418383  
H512     H      0.945050000000     0.366330000000     0.861250000000     0.0323834  
H513     H      0.317970000000     0.090500000000     0.727560000000     0.0436087  
H514     H      0.374410000000     0.938600000000     0.685910000000     0.0263265  
H515     H      0.261730000000     0.004270000000     0.771170000000     0.0283339  
H516     H      0.310540000000     0.954960000000     0.752230000000     0.0425705  
H517     H      0.346170000000     0.934150000000     0.721910000000     0.0440568  
H518     H      0.352800000000     0.062940000000     0.697890000000     0.0417921  
H519     H      0.313460000000     0.118100000000     0.766130000000     0.0393671  
H520     H      0.324200000000     0.904470000000     0.684050000000     0.0394715  
H521     H      0.361790000000     0.982730000000     0.761170000000     0.0500599  
H522     H      0.292870000000     0.051140000000     0.694280000000     0.0516666  
H523     H      0.303860000000     0.983890000000     0.790080000000     0.03521    
H524     H      0.375760000000     0.012800000000     0.671060000000     0.026465   
H525     H      0.367080000000     0.076300000000     0.743890000000     0.0501693  
H526     H      0.287770000000     0.943130000000     0.713560000000     0.0547139  
H527     H      0.325670000000     0.037670000000     0.659260000000     0.0406593  
H528     H      0.266610000000     0.083560000000     0.757460000000     0.0286222  
H529     H      0.230500000000     0.969440000000     0.499560000000     0.0439041  
H530     H      0.415240000000     0.988900000000     0.495850000000     0.0282286  
H531     H      0.220780000000     0.064510000000     0.454530000000     0.0240861  
H532     H      0.299470000000     0.064810000000     0.461430000000     0.0436296  
H533     H      0.369020000000     0.034520000000     0.472920000000     0.0409443  
H534     H      0.296960000000     0.945560000000     0.513910000000     0.0404552  
H535     H      0.177170000000     0.952020000000     0.467620000000     0.03957    
H536     H      0.427320000000     0.045950000000     0.502690000000     0.0406078  
H537     H      0.308770000000     0.013860000000     0.446660000000     0.0476064  
H538     H      0.289820000000     0.998700000000     0.527080000000     0.0527567  
H539     H      0.246860000000     0.049660000000     0.428790000000     0.0363905  
H540     H      0.374570000000     0.941250000000     0.521620000000     0.0325233  
H541     H      0.254540000000     0.937290000000     0.477370000000     0.0490738  
H542     H      0.349450000000     0.068020000000     0.495630000000     0.0534753  
H543     H      0.350330000000     0.963380000000     0.546460000000     0.040471   
H544     H      0.180910000000     0.008880000000     0.476600000000     0.0259296  
H545     H      0.490610000000     0.072310000000     0.677410000000     0.0433115  
H546     H      0.432670000000     0.903810000000     0.709230000000     0.0306141  
H547     H      0.542710000000     0.998970000000     0.626350000000     0.0245607  
H548     H      0.500310000000     0.945420000000     0.645350000000     0.0427736  
H549     H      0.458880000000     0.916360000000     0.674080000000     0.0472443  
H550     H      0.444490000000     0.038360000000     0.703220000000     0.0424955  
H551     H      0.495430000000     0.109550000000     0.640940000000     0.0391771  
H552     H      0.488520000000     0.880140000000     0.710800000000     0.0542936  
H553     H      0.446000000000     0.969220000000     0.638320000000     0.0532033  
H554     H      0.503510000000     0.026920000000     0.709660000000     0.0525074  
H555     H      0.497010000000     0.983240000000     0.608090000000     0.0361705  
H556     H      0.417580000000     0.977650000000     0.724120000000     0.0255889  
H557     H      0.440230000000     0.063960000000     0.660850000000     0.0521247  
H558     H      0.517190000000     0.925270000000     0.682700000000     0.0530874  
H559     H      0.459080000000     0.005350000000     0.741090000000     0.0374076  
H560     H      0.540260000000     0.070390000000     0.646440000000     0.0261318  
H561     H      0.346260000000     0.948540000000     0.453880000000     0.0453638  
H562     H      0.472660000000     0.959000000000     0.386330000000     0.0258319  
H563     H      0.350390000000     0.819560000000     0.440710000000     0.0309436  
H564     H      0.384730000000     0.851530000000     0.410000000000     0.0438558  
H565     H      0.420730000000     0.898320000000     0.388590000000     0.040143   
H566     H      0.391090000000     0.001210000000     0.437390000000     0.0413159  
H567     H      0.362150000000     0.897560000000     0.486840000000     0.0324698  
H568     H      0.439320000000     0.957940000000     0.361450000000     0.034015   
H569     H      0.438130000000     0.861970000000     0.424290000000     0.0486912  
H570     H      0.353280000000     0.002030000000     0.413920000000     0.0536742  
H571     H      0.407550000000     0.798330000000     0.441720000000     0.0507491  
H572     H      0.457190000000     0.015800000000     0.415180000000     0.0273124  
H573     H      0.405220000000     0.941780000000     0.461820000000     0.0505502  
H574     H      0.372200000000     0.931520000000     0.381540000000     0.0541841  
H575     H      0.414630000000     0.057680000000     0.410490000000     0.0400887  
H576     H      0.325500000000     0.876740000000     0.465310000000     0.0241222  
H577     H      0.360100000000     0.949090000000     0.812000000000     0.0613684  
H578     H      0.411670000000     0.778530000000     0.795870000000     0.0286545  
H579     H      0.284510000000     0.836170000000     0.839760000000     0.0286004  
H580     H      0.366580000000     0.816190000000     0.841240000000     0.043413   
H581     H      0.336070000000     0.794400000000     0.811010000000     0.0449658  
H582     H      0.393300000000     0.918990000000     0.785160000000     0.0465567  
H583     H      0.301350000000     0.968990000000     0.840320000000     0.047421   
H584     H      0.368250000000     0.755820000000     0.778600000000     0.0413604  
H585     H      0.379200000000     0.865020000000     0.856000000000     0.0467076  
H586     H      0.347320000000     0.891870000000     0.770690000000     0.0481119  
H587     H      0.304940000000     0.839400000000     0.367630000000     0.038616   
H588     H      0.447180000000     0.863860000000     0.776800000000     0.0353276  
H589     H      0.377900000000     0.938900000000     0.839510000000     0.063295   
H590     H      0.316950000000     0.816420000000     0.785590000000     0.0521715  
H591     H      0.417950000000     0.877270000000     0.751740000000     0.0386174  
H592     H      0.281480000000     0.930180000000     0.820010000000     0.0325159  
H593     H      0.562240000000     0.775050000000     0.602540000000     0.0441204  
H594     H      0.396920000000     0.841530000000     0.633810000000     0.0273583  
H595     H      0.489200000000     0.692170000000     0.567110000000     0.0255707  
H596     H      0.432260000000     0.725990000000     0.588420000000     0.0420079  
H597     H      0.399420000000     0.780040000000     0.609930000000     0.0417801  
H598     H      0.532000000000     0.831170000000     0.623670000000     0.0438353  
H599     H      0.584830000000     0.769700000000     0.561830000000     0.0367217  
H600     H      0.375790000000     0.795150000000     0.649530000000     0.0392683  
H601     H      0.433600000000     0.777170000000     0.572870000000     0.0497129  
H602     H      0.524790000000     0.783390000000     0.641320000000     0.0543283  
H603     H      0.452530000000     0.718490000000     0.547370000000     0.036527   
H604     H      0.472290000000     0.871240000000     0.640230000000     0.0221351  
H605     H      0.539820000000     0.817310000000     0.584340000000     0.054893   
H606     H      0.423760000000     0.743460000000     0.630340000000     0.0517927  
H607     H      0.507960000000     0.849930000000     0.662130000000     0.0352268  
H608     H      0.563370000000     0.720320000000     0.574980000000     0.023705   
H609     H      0.333510000000     0.806700000000     0.584320000000     0.048413   
H610     H      0.289820000000     0.753690000000     0.495260000000     0.0275082  
H611     H      0.322510000000     0.900460000000     0.571960000000     0.0336565  
H612     H      0.308410000000     0.879910000000     0.534070000000     0.0429841  
H613     H      0.298750000000     0.828120000000     0.507140000000     0.0444753  
H614     H      0.354410000000     0.740570000000     0.558630000000     0.0429811  
H615     H      0.228850000000     0.810890000000     0.579510000000     0.0328978  
H616     H      0.333710000000     0.777890000000     0.478630000000     0.0423939  
H617     H      0.251750000000     0.859480000000     0.539940000000     0.0500638  
H618     H      0.392980000000     0.765310000000     0.539610000000     0.0637912  
H619     H      0.270040000000     0.924720000000     0.562850000000     0.038892   
H620     H      0.314910000000     0.701270000000     0.528030000000     0.0264205  
H621     H      0.294050000000     0.763760000000     0.575440000000     0.0438535  
H622     H      0.359810000000     0.824670000000     0.508860000000     0.0616803  
H623     H      0.374350000000     0.687290000000     0.530140000000     0.0385742  
H624     H      0.261430000000     0.810330000000     0.604580000000     0.0390459  
H625     H      0.536300000000     0.724790000000     0.862130000000     0.0438344  
H626     H      0.455360000000     0.887510000000     0.841100000000     0.0244797  
H627     H      0.563610000000     0.786830000000     0.419320000000     0.0292755  
H628     H      0.520610000000     0.841630000000     0.401710000000     0.0429494  
H629     H      0.493180000000     0.876450000000     0.374160000000     0.0407179  
H630     H      0.496920000000     0.757850000000     0.835440000000     0.0438832  
H631     H      0.528200000000     0.677320000000     0.395950000000     0.038713   
H632     H      0.504580000000     0.922900000000     0.839940000000     0.0428178  
H633     H      0.468290000000     0.809690000000     0.402430000000     0.0484818  
H634     H      0.550460000000     0.786530000000     0.831670000000     0.0542339  
H635     H      0.512630000000     0.795030000000     0.435210000000     0.0528389  
H636     H      0.453360000000     0.817000000000     0.820800000000     0.0266191  
H637     H      0.479590000000     0.723980000000     0.873580000000     0.0507488  
H638     H      0.549010000000     0.873460000000     0.362110000000     0.0537332  
H639     H      0.497710000000     0.803400000000     0.801410000000     0.0426579  
H640     H      0.572580000000     0.718570000000     0.396660000000     0.0254577  
H641     H      0.684760000000     0.632360000000     0.784720000000     0.0425564  
H642     H      0.644630000000     0.728830000000     0.711700000000     0.024968   
H643     H      0.645010000000     0.540290000000     0.734710000000     0.0289464  
H644     H      0.696130000000     0.591510000000     0.714780000000     0.0442845  
H645     H      0.672940000000     0.657370000000     0.707390000000     0.0434829  
H646     H      0.652780000000     0.690990000000     0.773020000000     0.0413839  
H647     H      0.690630000000     0.553020000000     0.795120000000     0.0396981  
H648     H      0.602810000000     0.699370000000     0.695680000000     0.0391322  
H649     H      0.740490000000     0.582760000000     0.734260000000     0.0540904  
H650     H      0.604240000000     0.655880000000     0.767530000000     0.0508625  
H651     H      0.697510000000     0.514100000000     0.726940000000     0.0415465  
H652     H      0.628290000000     0.748590000000     0.750950000000     0.0282244  
H653     H      0.734360000000     0.607260000000     0.773980000000     0.0512323  
H654     H      0.619230000000     0.630330000000     0.713420000000     0.0525785  
H655     H      0.577120000000     0.729260000000     0.763840000000     0.0412459  
H656     H      0.640010000000     0.564410000000     0.779420000000     0.0284398  
H657     H      0.543090000000     0.184500000000     0.781930000000     0.0426954  
H658     H      0.532560000000     0.361500000000     0.757200000000     0.0251872  
H659     H      0.485040000000     0.236250000000     0.838760000000     0.027532   
H660     H      0.464970000000     0.291890000000     0.812660000000     0.0441641  
H661     H      0.490320000000     0.334690000000     0.786460000000     0.0438566  
H662     H      0.558150000000     0.234190000000     0.755140000000     0.0433556  
H663     H      0.502540000000     0.130950000000     0.805500000000     0.0388795  
H664     H      0.556340000000     0.389000000000     0.780880000000     0.0383653  
H665     H      0.432100000000     0.254610000000     0.795870000000     0.053538   
H666     H      0.596200000000     0.243330000000     0.777990000000     0.0507475  
H667     H      0.424370000000     0.236030000000     0.834890000000     0.0414002  
H668     H      0.574530000000     0.301850000000     0.738530000000     0.0248065  
H669     H      0.483200000000     0.183590000000     0.776100000000     0.0518964  
H670     H      0.538770000000     0.329110000000     0.804770000000     0.0522926  
H671     H      0.628840000000     0.283790000000     0.748790000000     0.0339714  
H672     H      0.532410000000     0.173290000000     0.820790000000     0.0256004  
H673     H      0.661120000000     0.594530000000     0.555870000000     0.0429269  
H674     H      0.539610000000     0.527780000000     0.496680000000     0.0289561  
H675     H      0.621370000000     0.498720000000     0.592580000000     0.025095   
H676     H      0.563990000000     0.496870000000     0.565710000000     0.0435377  
H677     H      0.528450000000     0.510860000000     0.534830000000     0.0442548  
H678     H      0.627700000000     0.619150000000     0.526470000000     0.0419528  
H679     H      0.726660000000     0.540570000000     0.565990000000     0.0392768  
H680     H      0.482950000000     0.542990000000     0.504780000000     0.0412437  
H681     H      0.599720000000     0.471260000000     0.545060000000     0.0535217  
H682     H      0.572470000000     0.634580000000     0.536090000000     0.0528387  
H683     H      0.623330000000     0.444140000000     0.580590000000     0.0374293  
H684     H      0.599730000000     0.593740000000     0.491540000000     0.0258419  
H685     H      0.678340000000     0.554130000000     0.535570000000     0.051129   
H686     H      0.509190000000     0.565720000000     0.541420000000     0.0523918  
H687     H      0.579660000000     0.648980000000     0.496740000000     0.036043   
H688     H      0.682890000000     0.552310000000     0.585750000000     0.025975   
H689     H      0.628980000000     0.235990000000     0.594820000000     0.0469601  
H690     H      0.501330000000     0.238630000000     0.525480000000     0.0272357  
H691     H      0.717580000000     0.198480000000     0.546750000000     0.0380338  
H692     H      0.648320000000     0.201920000000     0.528080000000     0.042688   
H693     H      0.575090000000     0.211570000000     0.521210000000     0.0430951  
H694     H      0.557340000000     0.262460000000     0.586480000000     0.0446271  
H695     H      0.707860000000     0.267650000000     0.596580000000     0.0416834  
H696     H      0.494660000000     0.179660000000     0.521990000000     0.0409636  
H697     H      0.646450000000     0.261610000000     0.527670000000     0.0528031  
H698     H      0.549500000000     0.203000000000     0.587840000000     0.0521545  
H699     H      0.725140000000     0.243540000000     0.527570000000     0.0401172  
H700     H      0.494500000000     0.272820000000     0.562050000000     0.0274754  
H701     H      0.635240000000     0.288850000000     0.580910000000     0.0584779  
H702     H      0.566310000000     0.164410000000     0.539040000000     0.050251   
H703     H      0.475920000000     0.240240000000     0.585320000000     0.0409002  
H704     H      0.703170000000     0.212280000000     0.585450000000     0.0113979  
H705     H      0.034750000000     0.044620000000     0.819510000000     0.0440571  
H706     H      0.853770000000     0.049010000000     0.340710000000     0.0256994  
H707     H      0.049520000000     0.061170000000     0.885570000000     0.0226994  
H708     H      0.973380000000     0.033000000000     0.385070000000     0.0437884  
H709     H      0.907480000000     0.036080000000     0.368350000000     0.0437102  
H710     H      0.965430000000     0.050820000000     0.806530000000     0.0435513  
H711     H      0.106210000000     0.012660000000     0.834880000000     0.0407054  
H712     H      0.847830000000     0.094430000000     0.359730000000     0.0381066  
H713     H      0.989740000000     0.981040000000     0.372930000000     0.0535133  
H714     H      0.976340000000     0.104860000000     0.818420000000     0.052228   
H715     H      0.046360000000     0.008670000000     0.399620000000     0.0387487  
H716     H      0.887400000000     0.060590000000     0.304350000000     0.0256981  
H717     H      0.028300000000     0.988520000000     0.329050000000     0.0524215  
H718     H      0.926770000000     0.093220000000     0.869350000000     0.0521726  
H719     H      0.909990000000     0.113850000000     0.796530000000     0.0389432  
H720     H      0.088330000000     0.064070000000     0.847090000000     0.0255222  
H721     H      0.681780000000     0.197890000000     0.750670000000     0.0416656  
H722     H      0.670160000000     0.072500000000     0.810400000000     0.0292259  
H723     H      0.659590000000     0.271050000000     0.797340000000     0.0294724  
H724     H      0.624950000000     0.205050000000     0.811050000000     0.0431657  
H725     H      0.613640000000     0.131960000000     0.814660000000     0.0441863  
H726     H      0.664150000000     0.127880000000     0.745830000000     0.0427784  
H727     H      0.759240000000     0.235660000000     0.764220000000     0.0405083  
H728     H      0.614220000000     0.049820000000     0.814890000000     0.0441818  
H729     H      0.678900000000     0.181080000000     0.819160000000     0.0527813  
H730     H      0.609590000000     0.106800000000     0.752800000000     0.0516467  
H731     H      0.685270000000     0.260130000000     0.823740000000     0.0405404  
H732     H      0.701900000000     0.071320000000     0.769310000000     0.0278425  
H733     H      0.725600000000     0.166840000000     0.764780000000     0.0495587  
H734     H      0.579530000000     0.109840000000     0.792840000000     0.0517534  
H735     H      0.666440000000     0.046630000000     0.748380000000     0.040616   
H736     H      0.706110000000     0.264440000000     0.763410000000     0.0445095  
H737     H      0.886120000000     0.347050000000     0.431160000000     0.0523827  
H738     H      0.735650000000     0.429550000000     0.462820000000     0.0250169  
H739     H      0.803990000000     0.242300000000     0.921610000000     0.0280863  
H740     H      0.747940000000     0.296460000000     0.429560000000     0.0439944  
H741     H      0.726260000000     0.361800000000     0.443830000000     0.042276   
H742     H      0.860940000000     0.404180000000     0.449840000000     0.0473749  
H743     H      0.903310000000     0.303910000000     0.396820000000     0.0423146  
H744     H      0.707970000000     0.391750000000     0.481450000000     0.0393405  
H745     H      0.759840000000     0.328830000000     0.405320000000     0.0511363  
H746     H      0.857430000000     0.360040000000     0.469920000000     0.0497361  
H747     H      0.767670000000     0.249460000000     0.897940000000     0.0423897  
H748     H      0.815400000000     0.452320000000     0.469440000000     0.0305106  
H749     H      0.856810000000     0.366050000000     0.406850000000     0.0522083  
H750     H      0.747450000000     0.328730000000     0.466610000000     0.0537941  
H751     H      0.848670000000     0.426330000000     0.490570000000     0.036357   
H752     H      0.885380000000     0.272150000000     0.420410000000     0.0300929  
H753     H      0.969720000000     0.006380000000     0.587980000000     0.0440035  
H754     H      0.108020000000     0.112010000000     0.622470000000     0.0244921  
H755     H      0.909660000000     0.021580000000     0.646430000000     0.0254893  
H756     H      0.975780000000     0.064120000000     0.651850000000     0.0436432  
H757     H      0.042780000000     0.096540000000     0.643090000000     0.0432946  
H758     H      0.036550000000     0.041190000000     0.579330000000     0.0436835  
H759     H      0.884680000000     0.018680000000     0.586610000000     0.0382864  
H760     H      0.127270000000     0.079620000000     0.645670000000     0.0353094  
H761     H      0.957770000000     0.108220000000     0.633640000000     0.0543988  
H762     H      0.052640000000     0.995020000000     0.596700000000     0.0520104  
H763     H      0.890920000000     0.077720000000     0.650860000000     0.0382535  
H764     H      0.104530000000     0.080600000000     0.585790000000     0.0242793  
H765     H      0.952660000000     0.063450000000     0.584290000000     0.0535514  
H766     H      0.057210000000     0.038890000000     0.647400000000     0.0519412  
H767     H      0.121210000000     0.024040000000     0.580720000000     0.0379428  
H768     H      0.906360000000     0.988080000000     0.609930000000     0.0259626  
H769     H      0.527030000000     0.028660000000     0.566020000000     0.0478034  
H770     H      0.696170000000     0.043280000000     0.542810000000     0.0299095  
H771     H      0.508480000000     0.022930000000     0.503820000000     0.0296049  
H772     H      0.581160000000     0.054690000000     0.504280000000     0.0448416  
H773     H      0.644350000000     0.079980000000     0.517080000000     0.0433808  
H774     H      0.579130000000     0.064370000000     0.582500000000     0.0437324  
H775     H      0.500170000000     0.950470000000     0.553910000000     0.0428795  
H776     H      0.715510000000     0.098290000000     0.535970000000     0.0398897  
H777     H      0.609430000000     0.003520000000     0.512030000000     0.0538305  
H778     H      0.598620000000     0.116940000000     0.573140000000     0.0505578  
H779     H      0.545150000000     0.986160000000     0.488800000000     0.0393546  
H780     H      0.656250000000     0.034330000000     0.583680000000     0.0286577  
H781     H      0.568910000000     0.985230000000     0.563790000000     0.0509789  
H782     H      0.637080000000     0.126050000000     0.535070000000     0.0482327  
H783     H      0.652380000000     0.084490000000     0.599620000000     0.0397433  
H784     H      0.478290000000     0.999180000000     0.540760000000     0.0356408  
H785     H      0.816080000000     0.244750000000     0.722250000000     0.0443264  
H786     H      0.723840000000     0.298840000000     0.645670000000     0.0297201  
H787     H      0.870480000000     0.368650000000     0.720250000000     0.0225227  
H788     H      0.834200000000     0.360760000000     0.686480000000     0.0398679  
H789     H      0.786410000000     0.338300000000     0.659960000000     0.0432381  
H790     H      0.757890000000     0.222100000000     0.699680000000     0.0429544  
H791     H      0.819900000000     0.287750000000     0.758200000000     0.0473095  
H792     H      0.768580000000     0.294150000000     0.625660000000     0.0504236  
H793     H      0.778070000000     0.369970000000     0.697440000000     0.0519414  
H794     H      0.804590000000     0.210960000000     0.681300000000     0.0540015  
H795     H      0.825970000000     0.409340000000     0.721910000000     0.0394318  
H796     H      0.705330000000     0.235060000000     0.670270000000     0.0259223  
H797     H      0.764990000000     0.275310000000     0.728960000000     0.0532717  
H798     H      0.826890000000     0.295470000000     0.653750000000     0.0492642  
H799     H      0.732720000000     0.182290000000     0.666220000000     0.0404006  
H800     H      0.864730000000     0.298260000000     0.738750000000     0.025427   
H801     H      0.750010000000     0.765710000000     0.788840000000     0.0432833  
H802     H      0.802700000000     0.696990000000     0.709560000000     0.0258708  
H803     H      0.750990000000     0.865920000000     0.741900000000     0.0276614  
H804     H      0.745890000000     0.799760000000     0.718270000000     0.0441403  
H805     H      0.812190000000     0.775970000000     0.718470000000     0.0440735  
H806     H      0.765260000000     0.698560000000     0.775660000000     0.042577   
H807     H      0.697420000000     0.828090000000     0.796270000000     0.0389741  
H808     H      0.861640000000     0.713070000000     0.708270000000     0.0390455  
H809     H      0.694510000000     0.782910000000     0.730830000000     0.0530514  
H810     H      0.823990000000     0.716670000000     0.776140000000     0.0517277  
H811     H      0.697530000000     0.863920000000     0.727370000000     0.0409393  
H812     H      0.775970000000     0.651930000000     0.744290000000     0.0268972  
H813     H      0.695900000000     0.759060000000     0.775060000000     0.0486774  
H814     H      0.852340000000     0.763900000000     0.739430000000     0.0532874  
H815     H      0.817610000000     0.638210000000     0.765040000000     0.0406607  
H816     H      0.750790000000     0.844440000000     0.784270000000     0.0277082  
H817     H      0.112310000000     0.706940000000     0.675830000000     0.0449859  
H818     H      0.056390000000     0.884770000000     0.688960000000     0.0255194  
H819     H      0.115900000000     0.705200000000     0.744190000000     0.0259648  
H820     H      0.098510000000     0.777450000000     0.735240000000     0.0437853  
H821     H      0.081880000000     0.838780000000     0.717040000000     0.0436096  
H822     H      0.077910000000     0.764220000000     0.657020000000     0.0449915  
H823     H      0.089640000000     0.636900000000     0.694880000000     0.0420943  
H824     H      0.111550000000     0.906580000000     0.695960000000     0.0384187  
H825     H      0.040420000000     0.765620000000     0.727500000000     0.0521506  
H826     H      0.135350000000     0.784460000000     0.660800000000     0.0556204  
H827     H      0.058260000000     0.710030000000     0.753590000000     0.0378295  
H828     H      0.046450000000     0.837360000000     0.655550000000     0.0263167  
H829     H      0.052110000000     0.704030000000     0.681850000000     0.0547189  
H830     H      0.139400000000     0.835750000000     0.707060000000     0.0528459  
H831     H      0.092080000000     0.832960000000     0.635920000000     0.0409416  
H832     H      0.133070000000     0.668730000000     0.708840000000     0.0271122  
H833     H      0.961360000000     0.448990000000     0.605180000000     0.0431512  
H834     H      0.857100000000     0.476090000000     0.678510000000     0.026933   
H835     H      0.908320000000     0.326520000000     0.611840000000     0.0262974  
H836     H      0.900820000000     0.358370000000     0.645970000000     0.0425104  
H837     H      0.893660000000     0.405290000000     0.673070000000     0.0415402  
H838     H      0.947820000000     0.506410000000     0.627460000000     0.0418756  
H839     H      0.920080000000     0.417120000000     0.571510000000     0.0374194  
H840     H      0.891420000000     0.462580000000     0.702150000000     0.0349431  
H841     H      0.850830000000     0.389990000000     0.638640000000     0.0478699  
H842     H      0.983140000000     0.490680000000     0.650400000000     0.0577373  
H843     H      0.847620000000     0.329220000000     0.614450000000     0.0421538  
H844     H      0.889050000000     0.535690000000     0.650680000000     0.0271246  
H845     H      0.902520000000     0.465480000000     0.601750000000     0.0499444  
H846     H      0.948850000000     0.427160000000     0.678730000000     0.0559811  
H847     H      0.943010000000     0.561060000000     0.656960000000     0.0415273  
H848     H      0.949760000000     0.378870000000     0.589160000000     0.0245168  
H849     H      0.723460000000     0.798870000000     0.474990000000     0.0439858  
H850     H      0.716600000000     0.649310000000     0.528180000000     0.0230124  
H851     H      0.630320000000     0.742950000000     0.439050000000     0.0253532  
H852     H      0.643920000000     0.684610000000     0.464460000000     0.0454161  
H853     H      0.670730000000     0.653690000000     0.496200000000     0.0418581  
H854     H      0.753970000000     0.767800000000     0.506290000000     0.0443112  
H855     H      0.654260000000     0.849180000000     0.466900000000     0.0394307  
H856     H      0.733500000000     0.604500000000     0.510350000000     0.0391727  
H857     H      0.615390000000     0.713150000000     0.486770000000     0.0567699  
H858     H      0.781680000000     0.736150000000     0.484990000000     0.0541311  
H859     H      0.577430000000     0.731660000000     0.453010000000     0.0469973  
H860     H      0.765310000000     0.713480000000     0.533630000000     0.0261175  
H861     H      0.680600000000     0.803050000000     0.496140000000     0.0528295  
H862     H      0.717960000000     0.647690000000     0.477560000000     0.0545886  
H863     H      0.818730000000     0.718710000000     0.519390000000     0.0396611  
H864     H      0.672000000000     0.810460000000     0.446040000000     0.0254677  
H865     H      0.076700000000     0.720360000000     0.461300000000     0.0439764  
H866     H      0.095250000000     0.760490000000     0.372740000000     0.0262625  
H867     H      0.945840000000     0.758870000000     0.451460000000     0.0276629  
H868     H      0.970690000000     0.755200000000     0.414520000000     0.0437974  
H869     H      0.023440000000     0.759080000000     0.388920000000     0.0436194  
H870     H      0.125810000000     0.726240000000     0.434460000000     0.0434894  
H871     H      0.019760000000     0.680000000000     0.483870000000     0.0390002  
H872     H      0.074750000000     0.816640000000     0.370880000000     0.0384912  
H873     H      0.979410000000     0.696010000000     0.415110000000     0.0523113  
H874     H      0.113950000000     0.783860000000     0.440500000000     0.0540067  
H875     H      0.914360000000     0.715710000000     0.437660000000     0.0388305  
H876     H      0.154900000000     0.740590000000     0.399530000000     0.0257242  
H877     H      0.054440000000     0.671480000000     0.447920000000     0.0519158  
H878     H      0.031950000000     0.810060000000     0.404120000000     0.0518107  
H879     H      0.179620000000     0.781990000000     0.417270000000     0.0410755  
H880     H      0.007890000000     0.737740000000     0.478970000000     0.0279459  
H881     H      0.884900000000     0.468090000000     0.887480000000     0.0424812  
H882     H      0.745650000000     0.350590000000     0.869180000000     0.0310279  
H883     H      0.779780000000     0.542260000000     0.414740000000     0.0280617  
H884     H      0.745550000000     0.471140000000     0.412510000000     0.0440423  
H885     H      0.734640000000     0.408140000000     0.394560000000     0.0423422  
H886     H      0.865500000000     0.409090000000     0.869440000000     0.0429483  
H887     H      0.907840000000     0.519590000000     0.416790000000     0.0406966  
H888     H      0.701710000000     0.384540000000     0.857340000000     0.0399068  
H889     H      0.785600000000     0.445870000000     0.430960000000     0.0530864  
H890     H      0.839040000000     0.452640000000     0.853340000000     0.0509986  
H891     H      0.771360000000     0.521540000000     0.442250000000     0.0400355  
H892     H      0.823940000000     0.352560000000     0.853870000000     0.0237538  
H893     H      0.878650000000     0.444290000000     0.914440000000     0.0518563  
H894     H      0.730700000000     0.450710000000     0.373600000000     0.0519987  
H895     H      0.837020000000     0.388570000000     0.831150000000     0.0442108  
H896     H      0.863770000000     0.540360000000     0.398920000000     0.0276304  
H897     H      0.362730000000     0.466170000000     0.680860000000     0.0434697  
H898     H      0.306550000000     0.631140000000     0.699720000000     0.0289691  
H899     H      0.280590000000     0.427960000000     0.725230000000     0.026585   
H900     H      0.282370000000     0.504350000000     0.733310000000     0.0438964  
H901     H      0.294600000000     0.575720000000     0.727670000000     0.0443859  
H902     H      0.388880000000     0.532510000000     0.675870000000     0.0435509  
H903     H      0.298570000000     0.415820000000     0.664890000000     0.0395613  
H904     H      0.328370000000     0.649590000000     0.725950000000     0.0418052  
H905     H      0.246680000000     0.519150000000     0.710020000000     0.0521831  
H906     H      0.414280000000     0.544240000000     0.702140000000     0.0512913  
H907     H      0.222830000000     0.447480000000     0.723170000000     0.0395989  
H908     H      0.366390000000     0.606970000000     0.669530000000     0.0274883  
H909     H      0.315990000000     0.491980000000     0.666300000000     0.050841   
H910     H      0.353680000000     0.574150000000     0.735340000000     0.0520637  
H911     H      0.425400000000     0.606690000000     0.677400000000     0.0388092  
H912     H      0.321840000000     0.405290000000     0.691790000000     0.0265264  
H913     H      0.188390000000     0.191910000000     0.571120000000     0.0441752  
H914     H      0.168080000000     0.246770000000     0.667100000000     0.0353956  
H915     H      0.274740000000     0.155970000000     0.626770000000     0.0296378  
H916     H      0.201210000000     0.115620000000     0.632640000000     0.0502609  
H917     H      0.136140000000     0.184450000000     0.646150000000     0.0491635  
H918     H      0.127630000000     0.221040000000     0.589470000000     0.043698   
H919     H      0.267460000000     0.168740000000     0.561430000000     0.0385636  
H920     H      0.211380000000     0.256430000000     0.647000000000     0.035174   
H921     H      0.205260000000     0.091770000000     0.606080000000     0.0584627  
H922     H      0.176970000000     0.255330000000     0.595470000000     0.0529523  
H923     H      0.281230000000     0.097390000000     0.622230000000     0.0448488  
H924     H      0.089750000000     0.244060000000     0.623030000000     0.0290833  
H925     H      0.195810000000     0.133290000000     0.571950000000     0.0512671  
H926     H      0.196980000000     0.178680000000     0.648720000000     0.0458151  
H927     H      0.107400000000     0.292250000000     0.607780000000     0.0389826  
H928     H      0.265870000000     0.205280000000     0.584790000000     0.0311786  
H929     H      0.015210000000     0.303790000000     0.767370000000     0.0444223  
H930     H      0.006510000000     0.458940000000     0.706710000000     0.0384041  
H931     H      0.940660000000     0.398690000000     0.805030000000     0.0272405  
H932     H      0.925080000000     0.417250000000     0.768210000000     0.0492007  
H933     H      0.943640000000     0.417080000000     0.722770000000     0.0523238  
H934     H      0.988020000000     0.302160000000     0.727850000000     0.0442848  
H935     H      0.987650000000     0.282610000000     0.804040000000     0.039642   
H936     H      0.046470000000     0.437300000000     0.726190000000     0.0410062  
H937     H      0.893840000000     0.367480000000     0.762970000000     0.0592243  
H938     H      0.041820000000     0.330510000000     0.732210000000     0.0518995  
H939     H      0.882810000000     0.382060000000     0.800780000000     0.0439841  
H940     H      0.968940000000     0.352360000000     0.697000000000     0.0246383  
H941     H      0.956320000000     0.286300000000     0.765870000000     0.0529999  
H942     H      0.976210000000     0.441170000000     0.745100000000     0.0549582  
H943     H      0.021100000000     0.322860000000     0.692450000000     0.0396976  
H944     H      0.003280000000     0.340410000000     0.802540000000     0.0242218  
H945     H      0.040660000000     0.464940000000     0.540470000000     0.0432739  
H946     H      0.103210000000     0.566890000000     0.609120000000     0.0264041  
H947     H      0.915390000000     0.492890000000     0.563290000000     0.0317253  
H948     H      0.960250000000     0.535650000000     0.587440000000     0.0409211  
H949     H      0.024100000000     0.560530000000     0.603130000000     0.0436895  
H950     H      0.103250000000     0.488880000000     0.557420000000     0.0443006  
H951     H      0.982050000000     0.479490000000     0.511240000000     0.0397537  
H952     H      0.079460000000     0.541960000000     0.633540000000     0.0399213  
H953     H      0.977580000000     0.574600000000     0.566430000000     0.0530023  
H954     H      0.082240000000     0.446920000000     0.576140000000     0.0513349  
H955     H      0.901070000000     0.549880000000     0.558550000000     0.0420047  
H956     H      0.149220000000     0.523360000000     0.583800000000     0.0262796  
H957     H      0.037460000000     0.521940000000     0.531500000000     0.0533687  
H958     H      0.022030000000     0.503540000000     0.612560000000     0.0482094  
H959     H      0.157700000000     0.464810000000     0.588070000000     0.0395454  
H960     H      0.962380000000     0.451470000000     0.535770000000     0.0290462  
H961     H      0.331500000000     0.486030000000     0.408610000000     0.0440746  
H962     H      0.174400000000     0.494040000000     0.456880000000     0.0282993  
H963     H      0.306600000000     0.611070000000     0.395790000000     0.0258983  
H964     H      0.238550000000     0.590050000000     0.412490000000     0.0430967  
H965     H      0.189000000000     0.549670000000     0.430160000000     0.0434339  
H966     H      0.285890000000     0.440070000000     0.424660000000     0.0446232  
H967     H      0.397670000000     0.537790000000     0.418050000000     0.0403488  
H968     H      0.128050000000     0.494980000000     0.437420000000     0.0390201  
H969     H      0.262420000000     0.588510000000     0.440040000000     0.0512449  
H970     H      0.242630000000     0.440460000000     0.403630000000     0.0527542  
H971     H      0.301820000000     0.645160000000     0.420000000000     0.0386633  
H972     H      0.233450000000     0.429200000000     0.453870000000     0.0285502  
H973     H      0.336800000000     0.503010000000     0.437130000000     0.0525045  
H974     H      0.178540000000     0.513550000000     0.407090000000     0.050972   
H975     H      0.224340000000     0.387860000000     0.432940000000     0.0415583  
H976     H      0.362840000000     0.550320000000     0.394440000000     0.0264435  
H977     H      0.191160000000     0.148300000000     0.451140000000     0.0437091  
H978     H      0.217240000000     0.058980000000     0.385380000000     0.0392536  
H979     H      0.086470000000     0.201850000000     0.900590000000     0.0350909  
H980     H      0.087390000000     0.123710000000     0.901190000000     0.0447433  
H981     H      0.142790000000     0.089020000000     0.885160000000     0.0462915  
H982     H      0.231250000000     0.175540000000     0.424400000000     0.0462736  
H983     H      0.142070000000     0.214920000000     0.463690000000     0.0359857  
H984     H      0.206130000000     0.079840000000     0.858150000000     0.042353   
H985     H      0.077660000000     0.119900000000     0.430070000000     0.0493643  
H986     H      0.216720000000     0.194200000000     0.897400000000     0.0561702  
H987     H      0.042620000000     0.188060000000     0.919620000000     0.035345   
H988     H      0.274600000000     0.114040000000     0.411020000000     0.0279729  
H989     H      0.133440000000     0.137220000000     0.457250000000     0.0498031  
H990     H      0.159930000000     0.140450000000     0.872150000000     0.0524546  
H991     H      0.292380000000     0.163770000000     0.397320000000     0.0430429  
H992     H      0.173830000000     0.223610000000     0.939090000000     0.0354984  
H993     H      0.889500000000     0.365030000000     0.507530000000     0.0584239  
H994     H      0.942680000000     0.214790000000     0.545920000000     0.027101   
H995     H      0.017430000000     0.398200000000     0.520190000000     0.02325    
H996     H      0.003880000000     0.340760000000     0.544490000000     0.0439926  
H997     H      0.974860000000     0.283060000000     0.560670000000     0.0431976  
H998     H      0.851530000000     0.309840000000     0.520340000000     0.0423672  
H999     H      0.936380000000     0.383530000000     0.473270000000     0.0374422  
H1000    H      0.936400000000     0.217030000000     0.575420000000     0.0387585  
H1001    H      0.009220000000     0.297720000000     0.523850000000     0.0511235  
H1002    H      0.848440000000     0.313060000000     0.549630000000     0.0390609  
H1003    H      0.056400000000     0.356140000000     0.511510000000     0.03851    
H1004    H      0.869560000000     0.230990000000     0.521470000000     0.0291746  
H1005    H      0.913000000000     0.318560000000     0.492400000000     0.0514275  
H1006    H      0.923040000000     0.297540000000     0.574050000000     0.0554759  
H1007    H      0.817250000000     0.242740000000     0.535600000000     0.0479121  
H1008    H      0.947060000000     0.413410000000     0.498260000000     0.0300479  
H1009    H      0.937160000000     0.441680000000     0.852560000000     0.0407466  
H1010    H      0.065550000000     0.518760000000     0.795190000000     0.0273684  
H1011    H      0.012840000000     0.333440000000     0.843630000000     0.0323372  
H1012    H      0.054420000000     0.385020000000     0.822740000000     0.042941   
H1013    H      0.064960000000     0.444060000000     0.803740000000     0.0440895  
H1014    H      0.953760000000     0.506330000000     0.837580000000     0.0433776  
H1015    H      0.950450000000     0.396080000000     0.386870000000     0.037123   
H1016    H      0.048890000000     0.491360000000     0.770130000000     0.0384912  
H1017    H      0.074170000000     0.415870000000     0.846350000000     0.052142   
H1018    H      0.933170000000     0.480690000000     0.812540000000     0.0516984  
H1019    H      0.068010000000     0.338510000000     0.856290000000     0.040586   
H1020    H      0.003000000000     0.556000000000     0.818750000000     0.027547   
H1021    H      0.985260000000     0.459080000000     0.869120000000     0.0507739  
H1022    H      0.012930000000     0.431870000000     0.789160000000     0.0506587  
H1023    H      0.946490000000     0.559950000000     0.807400000000     0.041823   
H1024    H      0.945050000000     0.366330000000     0.361250000000     0.032391   
In1      In     0.069710000000     0.347990000000     0.933960000000     2.39913    
In2      In     0.137610000000     0.404720000000     0.160060000000     2.38174    
In3      In     0.885040000000     0.593920000000     0.984460000000     2.39757    
In4      In     0.955600000000     0.594840000000     0.232130000000     2.39854    
In5      In     0.798790000000     0.150260000000     0.097310000000     2.40554    
In6      In     0.844560000000     0.240800000000     0.330600000000     2.40157    
In7      In     0.763760000000     0.387990000000     0.054420000000     2.36844    
In8      In     0.717000000000     0.401110000000     0.279720000000     2.3956     
In9      In     0.438610000000     0.664480000000     0.960210000000     2.40614    
In10     In     0.453640000000     0.743600000000     0.213700000000     2.39657    
In11     In     0.508660000000     0.835840000000     0.000960000000     2.41479    
In12     In     0.580960000000     0.923540000000     0.271730000000     2.42079    
In13     In     0.409310000000     0.098850000000     0.075230000000     2.39283    
In14     In     0.363720000000     0.091160000000     0.338960000000     2.41046    
In15     In     0.181300000000     0.928820000000     0.890450000000     2.39773    
In16     In     0.205280000000     0.943400000000     0.134580000000     2.40844    
In17     In     0.069710000000     0.347990000000     0.433960000000     2.39916    
In18     In     0.137610000000     0.404720000000     0.660060000000     2.38174    
In19     In     0.885050000000     0.593920000000     0.484460000000     2.39738    
In20     In     0.955600000000     0.594840000000     0.732130000000     2.39885    
In21     In     0.798790000000     0.150260000000     0.597310000000     2.40554    
In22     In     0.844560000000     0.240800000000     0.830600000000     2.40155    
In23     In     0.763760000000     0.387990000000     0.554420000000     2.36844    
In24     In     0.717000000000     0.401110000000     0.779720000000     2.39561    
In25     In     0.438610000000     0.664490000000     0.460210000000     2.40601    
In26     In     0.453640000000     0.743600000000     0.713700000000     2.39653    
In27     In     0.508660000000     0.835840000000     0.500960000000     2.41532    
In28     In     0.580950000000     0.923540000000     0.771730000000     2.42085    
In29     In     0.409310000000     0.098850000000     0.575230000000     2.39282    
In30     In     0.363720000000     0.091160000000     0.838960000000     2.41046    
In31     In     0.181300000000     0.928820000000     0.390450000000     2.39753    
In32     In     0.205280000000     0.943390000000     0.634590000000     2.40852    
N1       N      0.318060000000     0.970950000000     0.171410000000    -0.176986   
N2       N      0.311340000000     0.052070000000     0.279900000000    -0.175363   
N3       N      0.387240000000     0.009630000000     0.026270000000    -0.172223   
N4       N      0.214000000000     0.996610000000     0.946350000000    -0.177992   
N5       N      0.479830000000     0.943260000000     0.226740000000    -0.17762    
N6       N      0.491520000000     0.047630000000     0.123230000000    -0.178288   
N7       N      0.423630000000     0.010030000000     0.884300000000    -0.176304   
N8       N      0.391800000000     0.849200000000     0.965250000000    -0.176872   
N9       N      0.403230000000     0.812950000000     0.265580000000    -0.173949   
N10      N      0.291250000000     0.902100000000     0.351740000000    -0.176878   
N11      N      0.443240000000     0.817570000000     0.157820000000    -0.178592   
N12      N      0.516480000000     0.750840000000     0.053140000000    -0.17869    
N13      N      0.355540000000     0.729900000000     0.002900000000    -0.176248   
N14      N      0.263940000000     0.870970000000     0.085910000000    -0.174407   
N15      N      0.505990000000     0.864450000000     0.319520000000    -0.174757   
N16      N      0.516180000000     0.734220000000     0.916650000000    -0.17564    
N17      N      0.585140000000     0.713010000000     0.229470000000    -0.17653    
N18      N      0.689730000000     0.528550000000     0.261640000000    -0.175462   
N19      N      0.596960000000     0.337020000000     0.266650000000    -0.178486   
N20      N      0.460840000000     0.180720000000     0.320940000000    -0.175447   
N21      N      0.529460000000     0.597100000000     0.998690000000    -0.174508   
N22      N      0.677500000000     0.488700000000     0.071480000000    -0.17874    
N23      N      0.484300000000     0.204710000000     0.054820000000    -0.173689   
N24      N      0.716030000000     0.262000000000     0.061490000000    -0.174518   
N25      N      0.880300000000     0.109740000000     0.328870000000    -0.17792    
N26      N      0.079650000000     0.008510000000     0.867900000000    -0.176613   
N27      N      0.640630000000     0.043870000000     0.281770000000    -0.1742     
N28      N      0.726500000000     0.245790000000     0.295410000000    -0.175811   
N29      N      0.778610000000     0.405690000000     0.988250000000    -0.174843   
N30      N      0.835680000000     0.276240000000     0.895270000000    -0.174672   
N31      N      0.125300000000     0.045850000000     0.114430000000    -0.177933   
N32      N      0.886250000000     0.053700000000     0.117520000000    -0.177738   
N33      N      0.689010000000     0.089480000000     0.068890000000    -0.176228   
N34      N      0.524020000000     0.963820000000     0.020980000000    -0.174524   
N35      N      0.753860000000     0.235240000000     0.144580000000    -0.175419   
N36      N      0.815860000000     0.349680000000     0.240810000000    -0.1746     
N37      N      0.842350000000     0.672540000000     0.236130000000    -0.176096   
N38      N      0.695030000000     0.849420000000     0.262250000000    -0.176187   
N39      N      0.106560000000     0.871250000000     0.165180000000    -0.175744   
N40      N      0.068290000000     0.672080000000     0.223950000000    -0.176067   
N41      N      0.917140000000     0.514630000000     0.181120000000    -0.176644   
N42      N      0.878170000000     0.376870000000     0.092490000000    -0.175513   
N43      N      0.779850000000     0.659750000000     0.012360000000    -0.174085   
N44      N      0.612020000000     0.791430000000     0.962760000000    -0.175397   
N45      N      0.127370000000     0.804640000000     0.894940000000    -0.1748     
N46      N      0.964930000000     0.694170000000     0.961210000000    -0.176777   
N47      N      0.767710000000     0.389130000000     0.342270000000    -0.178436   
N48      N      0.840740000000     0.523860000000     0.930860000000    -0.175548   
N49      N      0.378470000000     0.632130000000     0.201510000000    -0.175222   
N50      N      0.256260000000     0.433230000000     0.192450000000    -0.176949   
N51      N      0.145670000000     0.277910000000     0.137390000000    -0.174588   
N52      N      0.282110000000     0.138660000000     0.093020000000    -0.177319   
N53      N      0.027910000000     0.392570000000     0.200620000000    -0.176587   
N54      N      0.932120000000     0.329430000000     0.303280000000    -0.176296   
N55      N      0.116990000000     0.498260000000     0.112310000000    -0.177507   
N56      N      0.940870000000     0.518030000000     0.033300000000    -0.176391   
N57      N      0.173010000000     0.438720000000     0.935510000000    -0.176734   
N58      N      0.351590000000     0.592800000000     0.921470000000    -0.176179   
N59      N      0.254310000000     0.117080000000     0.377550000000    -0.17401    
N60      N      0.102560000000     0.216670000000     0.933980000000    -0.175323   
N61      N      0.874990000000     0.226340000000     0.056230000000    -0.174305   
N62      N      0.998000000000     0.366800000000     0.990570000000    -0.176737   
N63      N      0.996460000000     0.527580000000     0.287020000000    -0.175431   
N64      N      0.012310000000     0.368770000000     0.373660000000    -0.173192   
N65      N      0.318060000000     0.970940000000     0.671410000000    -0.177043   
N66      N      0.311340000000     0.052070000000     0.779900000000    -0.175368   
N67      N      0.387240000000     0.009630000000     0.526270000000    -0.172214   
N68      N      0.214000000000     0.996610000000     0.446350000000    -0.177962   
N69      N      0.479830000000     0.943260000000     0.726740000000    -0.177593   
N70      N      0.491510000000     0.047630000000     0.623230000000    -0.178393   
N71      N      0.423630000000     0.010030000000     0.384300000000    -0.17631    
N72      N      0.391800000000     0.849200000000     0.465240000000    -0.176805   
N73      N      0.403230000000     0.812950000000     0.765580000000    -0.173988   
N74      N      0.291250000000     0.902090000000     0.851740000000    -0.176894   
N75      N      0.443240000000     0.817570000000     0.657820000000    -0.178547   
N76      N      0.516480000000     0.750840000000     0.553140000000    -0.178746   
N77      N      0.355540000000     0.729900000000     0.502900000000    -0.176073   
N78      N      0.263940000000     0.870970000000     0.585910000000    -0.174366   
N79      N      0.505990000000     0.864450000000     0.819520000000    -0.17475    
N80      N      0.516180000000     0.734220000000     0.416650000000    -0.175637   
N81      N      0.585140000000     0.713010000000     0.729470000000    -0.176549   
N82      N      0.689730000000     0.528550000000     0.761630000000    -0.175337   
N83      N      0.596960000000     0.337020000000     0.766650000000    -0.178475   
N84      N      0.460840000000     0.180720000000     0.820940000000    -0.175444   
N85      N      0.529460000000     0.597100000000     0.498690000000    -0.174602   
N86      N      0.677500000000     0.488700000000     0.571480000000    -0.178738   
N87      N      0.484300000000     0.204710000000     0.554820000000    -0.173691   
N88      N      0.716030000000     0.262000000000     0.561490000000    -0.174503   
N89      N      0.880300000000     0.109740000000     0.828870000000    -0.177923   
N90      N      0.079650000000     0.008510000000     0.367900000000    -0.17662    
N91      N      0.640630000000     0.043870000000     0.781770000000    -0.174197   
N92      N      0.726500000000     0.245790000000     0.795410000000    -0.175898   
N93      N      0.778610000000     0.405690000000     0.488250000000    -0.174906   
N94      N      0.835680000000     0.276240000000     0.395270000000    -0.174671   
N95      N      0.125300000000     0.045850000000     0.614420000000    -0.177905   
N96      N      0.886250000000     0.053700000000     0.617520000000    -0.177742   
N97      N      0.689010000000     0.089480000000     0.568890000000    -0.176219   
N98      N      0.524020000000     0.963820000000     0.520980000000    -0.174522   
N99      N      0.753860000000     0.235240000000     0.644580000000    -0.175417   
N100     N      0.815860000000     0.349670000000     0.740810000000    -0.174577   
N101     N      0.842350000000     0.672540000000     0.736130000000    -0.176108   
N102     N      0.695030000000     0.849420000000     0.762250000000    -0.176175   
N103     N      0.106560000000     0.871250000000     0.665180000000    -0.175702   
N104     N      0.068290000000     0.672080000000     0.723950000000    -0.176076   
N105     N      0.917140000000     0.514630000000     0.681120000000    -0.176647   
N106     N      0.878170000000     0.376870000000     0.592490000000    -0.175529   
N107     N      0.779840000000     0.659750000000     0.512360000000    -0.174151   
N108     N      0.612030000000     0.791440000000     0.462760000000    -0.175384   
N109     N      0.127370000000     0.804640000000     0.394940000000    -0.174845   
N110     N      0.964940000000     0.694170000000     0.461210000000    -0.176719   
N111     N      0.767700000000     0.389120000000     0.842270000000    -0.178444   
N112     N      0.840730000000     0.523870000000     0.430860000000    -0.175593   
N113     N      0.378470000000     0.632130000000     0.701510000000    -0.175252   
N114     N      0.256260000000     0.433230000000     0.692450000000    -0.176899   
N115     N      0.145670000000     0.277910000000     0.637390000000    -0.174585   
N116     N      0.282110000000     0.138660000000     0.593020000000    -0.177319   
N117     N      0.027910000000     0.392570000000     0.700620000000    -0.176582   
N118     N      0.932120000000     0.329430000000     0.803280000000    -0.176311   
N119     N      0.116990000000     0.498260000000     0.612310000000    -0.177527   
N120     N      0.940870000000     0.518030000000     0.533300000000    -0.176395   
N121     N      0.173010000000     0.438720000000     0.435510000000    -0.176782   
N122     N      0.351590000000     0.592800000000     0.421480000000    -0.176279   
N123     N      0.254310000000     0.117080000000     0.877550000000    -0.17401    
N124     N      0.102560000000     0.216670000000     0.433980000000    -0.175296   
N125     N      0.874990000000     0.226340000000     0.556230000000    -0.17431    
N126     N      0.998000000000     0.366800000000     0.490570000000    -0.176776   
N127     N      0.996460000000     0.527590000000     0.787020000000    -0.175497   
N128     N      0.012310000000     0.368770000000     0.873660000000    -0.173193   
O1       O      0.144610000000     0.367720000000     0.931460000000    -0.502683   
O2       O      0.096750000000     0.419580000000     0.936070000000    -0.510969   
O3       O      0.071190000000     0.346280000000     0.396350000000    -0.505442   
O4       O      0.055740000000     0.275250000000     0.424310000000    -0.502419   
O5       O      0.003460000000     0.361120000000     0.952680000000    -0.497922   
O6       O      0.111620000000     0.288950000000     0.945660000000    -0.499195   
O7       O      0.011530000000     0.371730000000     0.911750000000    -0.492844   
O8       O      0.063730000000     0.351180000000     0.971520000000    -0.508628   
O9       O      0.215200000000     0.413890000000     0.161360000000    -0.504266   
O10      O      0.178280000000     0.424560000000     0.190900000000    -0.504183   
O11      O      0.148300000000     0.433070000000     0.125290000000    -0.501763   
O12      O      0.118140000000     0.349760000000     0.135790000000    -0.492291   
O13      O      0.088070000000     0.432390000000     0.186030000000    -0.478416   
O14      O      0.164790000000     0.333860000000     0.161770000000    -0.500825   
O15      O      0.107030000000     0.469850000000     0.147280000000    -0.509128   
O16      O      0.075950000000     0.367530000000     0.173410000000    -0.504655   
O17      O      0.951320000000     0.634100000000     0.984030000000    -0.509317   
O18      O      0.899190000000     0.652070000000     0.961230000000    -0.507208   
O19      O      0.894180000000     0.573500000000     0.020430000000    -0.513671   
O20      O      0.811920000000     0.597690000000     0.996560000000    -0.485349   
O21      O      0.897250000000     0.556070000000     0.952200000000    -0.503802   
O22      O      0.854030000000     0.655160000000     0.000400000000    -0.499039   
O23      O      0.931510000000     0.537290000000     0.996620000000    -0.506297   
O24      O      0.829750000000     0.557770000000     0.964580000000    -0.492888   
O25      O      0.002650000000     0.652330000000     0.242480000000    -0.505734   
O26      O      0.021220000000     0.613740000000     0.214540000000    -0.49973    
O27      O      0.950310000000     0.577160000000     0.268540000000    -0.498049   
O28      O      0.887030000000     0.613590000000     0.247210000000    -0.497078   
O29      O      0.949440000000     0.577930000000     0.195670000000    -0.503365   
O30      O      0.912030000000     0.654150000000     0.221230000000    -0.504779   
O31      O      0.999820000000     0.542650000000     0.249600000000    -0.505073   
O32      O      0.924400000000     0.530090000000     0.218390000000    -0.507302   
O33      O      0.728040000000     0.117940000000     0.098890000000    -0.507349   
O34      O      0.759420000000     0.123490000000     0.067530000000    -0.5013     
O35      O      0.767360000000     0.165210000000     0.130800000000    -0.497117   
O36      O      0.844650000000     0.117440000000     0.123130000000    -0.505819   
O37      O      0.806790000000     0.196130000000     0.067720000000    -0.494671   
O38      O      0.837970000000     0.085590000000     0.091990000000    -0.512682   
O39      O      0.784300000000     0.220250000000     0.110350000000    -0.502865   
O40      O      0.866090000000     0.181470000000     0.086830000000    -0.508685   
O41      O      0.768100000000     0.252830000000     0.327500000000    -0.498195   
O42      O      0.804180000000     0.236790000000     0.298280000000    -0.507457   
O43      O      0.875090000000     0.270360000000     0.862400000000    -0.501476   
O44      O      0.848750000000     0.170940000000     0.345700000000    -0.512104   
O45      O      0.914840000000     0.262240000000     0.319450000000    -0.507883   
O46      O      0.876440000000     0.180000000000     0.313790000000    -0.499609   
O47      O      0.806220000000     0.248090000000     0.362870000000    -0.490559   
O48      O      0.861170000000     0.309430000000     0.316380000000    -0.507062   
O49      O      0.750250000000     0.317700000000     0.041070000000    -0.492775   
O50      O      0.732110000000     0.332170000000     0.074350000000    -0.484984   
O51      O      0.736470000000     0.388890000000     0.019190000000    -0.500266   
O52      O      0.694670000000     0.415180000000     0.065360000000    -0.50904    
O53      O      0.802780000000     0.363090000000     0.084680000000    -0.493674   
O54      O      0.748400000000     0.461650000000     0.062060000000    -0.511915   
O55      O      0.807160000000     0.402330000000     0.023830000000    -0.493781   
O56      O      0.838660000000     0.404870000000     0.062480000000    -0.487745   
O57      O      0.639370000000     0.393440000000     0.282340000000    -0.506949   
O58      O      0.675290000000     0.343090000000     0.265420000000    -0.50718    
O59      O      0.770370000000     0.407300000000     0.252580000000    -0.489543   
O60      O      0.703750000000     0.454850000000     0.254030000000    -0.499797   
O61      O      0.708590000000     0.389500000000     0.316990000000    -0.506229   
O62      O      0.707080000000     0.474910000000     0.287650000000    -0.506912   
O63      O      0.763210000000     0.344670000000     0.268860000000    -0.49306    
O64      O      0.775180000000     0.402270000000     0.304980000000    -0.507072   
O65      O      0.371350000000     0.654830000000     0.941660000000    -0.509932   
O66      O      0.418630000000     0.601560000000     0.941070000000    -0.496087   
O67      O      0.406760000000     0.674810000000     0.994110000000    -0.510273   
O68      O      0.506850000000     0.658260000000     0.978310000000    -0.505195   
O69      O      0.480210000000     0.670500000000     0.928590000000    -0.512829   
O70      O      0.459940000000     0.604430000000     0.980990000000    -0.49387    
O71      O      0.390150000000     0.721450000000     0.968990000000    -0.490544   
O72      O      0.474280000000     0.728090000000     0.948690000000    -0.484482   
O73      O      0.524750000000     0.717850000000     0.205140000000    -0.502179   
O74      O      0.512190000000     0.734430000000     0.238560000000    -0.505996   
O75      O      0.413860000000     0.769500000000     0.183790000000    -0.512052   
O76      O      0.442810000000     0.675700000000     0.197060000000    -0.500775   
O77      O      0.418480000000     0.748200000000     0.246810000000    -0.491782   
O78      O      0.391790000000     0.698960000000     0.218910000000    -0.493479   
O79      O      0.479810000000     0.796320000000     0.189800000000    -0.507961   
O80      O      0.438370000000     0.809040000000     0.231510000000    -0.500399   
O81      O      0.577760000000     0.845000000000     0.984220000000    -0.493028   
O82      O      0.540810000000     0.785190000000     0.978140000000    -0.497718   
O83      O      0.545670000000     0.804680000000     0.030200000000    -0.517671   
O84      O      0.505580000000     0.890220000000     0.027120000000    -0.503948   
O85      O      0.461620000000     0.817200000000     0.972130000000    -0.493158   
O86      O      0.529670000000     0.907850000000     0.995080000000    -0.497759   
O87      O      0.478570000000     0.781640000000     0.023360000000    -0.516704   
O88      O      0.436870000000     0.863290000000     0.995650000000    -0.516217   
O89      O      0.638910000000     0.879550000000     0.284120000000    -0.514258   
O90      O      0.635310000000     0.892480000000     0.249630000000    -0.501637   
O91      O      0.546180000000     0.923590000000     0.305210000000    -0.493921   
O92      O      0.599970000000     0.982600000000     0.293620000000    -0.489971   
O93      O      0.538560000000     0.902020000000     0.241660000000    -0.50043    
O94      O      0.622370000000     0.983200000000     0.260220000000    -0.509661   
O95      O      0.542490000000     0.864400000000     0.285930000000    -0.508118   
O96      O      0.523380000000     0.964070000000     0.256630000000    -0.519059   
O97      O      0.342840000000     0.136600000000     0.068990000000    -0.515853   
O98      O      0.348180000000     0.098850000000     0.098470000000    -0.512138   
O99      O      0.418110000000     0.074100000000     0.040230000000    -0.486673   
O100     O      0.453150000000     0.135050000000     0.049730000000    -0.478732   
O101     O      0.449690000000     0.103750000000     0.107360000000    -0.504349   
O102     O      0.438600000000     0.168370000000     0.079860000000    -0.498049   
O103     O      0.379150000000     0.033760000000     0.062230000000    -0.495894   
O104     O      0.452240000000     0.042420000000     0.090220000000    -0.508295   
O105     O      0.433050000000     0.109230000000     0.324460000000    -0.512875   
O106     O      0.390610000000     0.162100000000     0.335320000000    -0.49896    
O107     O      0.390540000000     0.075390000000     0.873210000000    -0.513757   
O108     O      0.326180000000     0.132640000000     0.364400000000    -0.492729   
O109     O      0.336180000000     0.105600000000     0.304440000000    -0.510571   
O110     O      0.288700000000     0.081380000000     0.348340000000    -0.500822   
O111     O      0.400300000000     0.026140000000     0.348600000000    -0.497457   
O112     O      0.339130000000     0.037940000000     0.314930000000    -0.504545   
O113     O      0.130210000000     0.875180000000     0.879910000000    -0.504131   
O114     O      0.177420000000     0.859730000000     0.905620000000    -0.490719   
O115     O      0.234210000000     0.948670000000     0.364170000000    -0.489171   
O116     O      0.145290000000     0.967480000000     0.362770000000    -0.494724   
O117     O      0.180920000000     0.937920000000     0.927880000000    -0.502312   
O118     O      0.114910000000     0.966260000000     0.894630000000    -0.512551   
O119     O      0.240600000000     0.885500000000     0.879510000000    -0.508089   
O120     O      0.219200000000     0.984030000000     0.908910000000    -0.519032   
O121     O      0.149430000000     0.891030000000     0.135000000000    -0.50048    
O122     O      0.162530000000     0.925460000000     0.165040000000    -0.498724   
O123     O      0.245310000000     0.937910000000     0.102240000000    -0.495296   
O124     O      0.168370000000     0.008990000000     0.140480000000    -0.509499   
O125     O      0.259650000000     0.925090000000     0.160010000000    -0.511532   
O126     O      0.165720000000     0.981550000000     0.108140000000    -0.506246   
O127     O      0.224240000000     0.878310000000     0.118330000000    -0.498735   
O128     O      0.263070000000     0.989620000000     0.145760000000    -0.507951   
O129     O      0.144610000000     0.367720000000     0.431460000000    -0.502617   
O130     O      0.096750000000     0.419580000000     0.436060000000    -0.511039   
O131     O      0.071190000000     0.346280000000     0.896350000000    -0.50545    
O132     O      0.055740000000     0.275250000000     0.924310000000    -0.502418   
O133     O      0.003460000000     0.361120000000     0.452680000000    -0.497934   
O134     O      0.111620000000     0.288950000000     0.445660000000    -0.499209   
O135     O      0.011530000000     0.371730000000     0.411750000000    -0.492845   
O136     O      0.063730000000     0.351180000000     0.471520000000    -0.508653   
O137     O      0.215200000000     0.413890000000     0.661360000000    -0.504265   
O138     O      0.178280000000     0.424560000000     0.690900000000    -0.504181   
O139     O      0.148300000000     0.433070000000     0.625290000000    -0.50169    
O140     O      0.118140000000     0.349760000000     0.635790000000    -0.492291   
O141     O      0.088070000000     0.432390000000     0.686030000000    -0.478418   
O142     O      0.164790000000     0.333860000000     0.661770000000    -0.500827   
O143     O      0.107030000000     0.469850000000     0.647280000000    -0.509124   
O144     O      0.075950000000     0.367530000000     0.673410000000    -0.504655   
O145     O      0.951320000000     0.634100000000     0.484030000000    -0.509361   
O146     O      0.899180000000     0.652060000000     0.461230000000    -0.507176   
O147     O      0.894180000000     0.573500000000     0.520430000000    -0.51366    
O148     O      0.811920000000     0.597690000000     0.496560000000    -0.485276   
O149     O      0.897250000000     0.556070000000     0.452190000000    -0.503672   
O150     O      0.854020000000     0.655160000000     0.500400000000    -0.499036   
O151     O      0.931510000000     0.537290000000     0.496620000000    -0.506468   
O152     O      0.829760000000     0.557770000000     0.464580000000    -0.49298    
O153     O      0.002650000000     0.652330000000     0.742480000000    -0.505754   
O154     O      0.021220000000     0.613740000000     0.714540000000    -0.499763   
O155     O      0.950310000000     0.577160000000     0.768530000000    -0.498338   
O156     O      0.887030000000     0.613590000000     0.747210000000    -0.497074   
O157     O      0.949440000000     0.577930000000     0.695670000000    -0.503399   
O158     O      0.912030000000     0.654150000000     0.721230000000    -0.504809   
O159     O      0.999820000000     0.542650000000     0.749600000000    -0.505128   
O160     O      0.924400000000     0.530090000000     0.718390000000    -0.507322   
O161     O      0.728040000000     0.117940000000     0.598890000000    -0.507349   
O162     O      0.759420000000     0.123490000000     0.567530000000    -0.501295   
O163     O      0.767360000000     0.165210000000     0.630800000000    -0.497117   
O164     O      0.844650000000     0.117440000000     0.623130000000    -0.50582    
O165     O      0.806790000000     0.196130000000     0.567720000000    -0.494669   
O166     O      0.837970000000     0.085590000000     0.591990000000    -0.512678   
O167     O      0.784300000000     0.220250000000     0.610350000000    -0.502866   
O168     O      0.866090000000     0.181470000000     0.586830000000    -0.508687   
O169     O      0.768100000000     0.252830000000     0.827490000000    -0.498469   
O170     O      0.804180000000     0.236790000000     0.798280000000    -0.507574   
O171     O      0.875090000000     0.270360000000     0.362400000000    -0.501454   
O172     O      0.848760000000     0.170940000000     0.845700000000    -0.5122     
O173     O      0.914840000000     0.262240000000     0.819440000000    -0.507883   
O174     O      0.876440000000     0.180000000000     0.813790000000    -0.499613   
O175     O      0.806220000000     0.248090000000     0.862870000000    -0.490578   
O176     O      0.861170000000     0.309430000000     0.816380000000    -0.507091   
O177     O      0.750250000000     0.317700000000     0.541070000000    -0.492765   
O178     O      0.732110000000     0.332170000000     0.574350000000    -0.484983   
O179     O      0.736470000000     0.388890000000     0.519190000000    -0.500261   
O180     O      0.694670000000     0.415180000000     0.565360000000    -0.509036   
O181     O      0.802780000000     0.363090000000     0.584680000000    -0.493675   
O182     O      0.748400000000     0.461650000000     0.562060000000    -0.51191    
O183     O      0.807160000000     0.402330000000     0.523830000000    -0.493778   
O184     O      0.838660000000     0.404870000000     0.562480000000    -0.487743   
O185     O      0.639380000000     0.393440000000     0.782340000000    -0.507153   
O186     O      0.675290000000     0.343090000000     0.765420000000    -0.507141   
O187     O      0.770370000000     0.407300000000     0.752580000000    -0.489619   
O188     O      0.703750000000     0.454850000000     0.754030000000    -0.499645   
O189     O      0.708590000000     0.389500000000     0.816990000000    -0.506211   
O190     O      0.707080000000     0.474910000000     0.787660000000    -0.506568   
O191     O      0.763210000000     0.344670000000     0.768860000000    -0.493023   
O192     O      0.775180000000     0.402280000000     0.804980000000    -0.507058   
O193     O      0.371350000000     0.654820000000     0.441660000000    -0.510032   
O194     O      0.418630000000     0.601560000000     0.441070000000    -0.496068   
O195     O      0.406760000000     0.674810000000     0.494110000000    -0.510184   
O196     O      0.506850000000     0.658260000000     0.478310000000    -0.5053     
O197     O      0.480210000000     0.670500000000     0.428590000000    -0.512816   
O198     O      0.459950000000     0.604420000000     0.480990000000    -0.493711   
O199     O      0.390150000000     0.721450000000     0.468980000000    -0.490435   
O200     O      0.474280000000     0.728090000000     0.448690000000    -0.484571   
O201     O      0.524750000000     0.717850000000     0.705140000000    -0.502211   
O202     O      0.512200000000     0.734430000000     0.738560000000    -0.505986   
O203     O      0.413850000000     0.769500000000     0.683790000000    -0.511833   
O204     O      0.442810000000     0.675700000000     0.697060000000    -0.500846   
O205     O      0.418480000000     0.748200000000     0.746810000000    -0.491819   
O206     O      0.391790000000     0.698960000000     0.718910000000    -0.493377   
O207     O      0.479810000000     0.796320000000     0.689800000000    -0.507968   
O208     O      0.438370000000     0.809030000000     0.731510000000    -0.500565   
O209     O      0.577760000000     0.845000000000     0.484220000000    -0.493104   
O210     O      0.540810000000     0.785190000000     0.478140000000    -0.4978     
O211     O      0.545670000000     0.804680000000     0.530200000000    -0.517808   
O212     O      0.505570000000     0.890210000000     0.527120000000    -0.503941   
O213     O      0.461620000000     0.817200000000     0.472130000000    -0.493123   
O214     O      0.529670000000     0.907850000000     0.495080000000    -0.497853   
O215     O      0.478580000000     0.781650000000     0.523360000000    -0.516907   
O216     O      0.436870000000     0.863300000000     0.495650000000    -0.516204   
O217     O      0.638910000000     0.879550000000     0.784120000000    -0.514175   
O218     O      0.635310000000     0.892480000000     0.749630000000    -0.501558   
O219     O      0.546180000000     0.923590000000     0.805210000000    -0.494181   
O220     O      0.599970000000     0.982600000000     0.793620000000    -0.489944   
O221     O      0.538560000000     0.902020000000     0.741670000000    -0.500664   
O222     O      0.622370000000     0.983200000000     0.760220000000    -0.509602   
O223     O      0.542490000000     0.864400000000     0.785940000000    -0.508284   
O224     O      0.523380000000     0.964080000000     0.756630000000    -0.518997   
O225     O      0.342840000000     0.136600000000     0.568990000000    -0.515851   
O226     O      0.348180000000     0.098850000000     0.598470000000    -0.512139   
O227     O      0.418120000000     0.074100000000     0.540230000000    -0.486575   
O228     O      0.453150000000     0.135050000000     0.549730000000    -0.478721   
O229     O      0.449690000000     0.103750000000     0.607360000000    -0.504354   
O230     O      0.438600000000     0.168370000000     0.579860000000    -0.498045   
O231     O      0.379150000000     0.033760000000     0.562230000000    -0.495865   
O232     O      0.452240000000     0.042420000000     0.590220000000    -0.508168   
O233     O      0.433050000000     0.109230000000     0.824460000000    -0.512875   
O234     O      0.390610000000     0.162100000000     0.835320000000    -0.498959   
O235     O      0.390540000000     0.075390000000     0.373210000000    -0.513759   
O236     O      0.326180000000     0.132640000000     0.864400000000    -0.492727   
O237     O      0.336180000000     0.105600000000     0.804440000000    -0.510572   
O238     O      0.288700000000     0.081380000000     0.848340000000    -0.500823   
O239     O      0.400300000000     0.026140000000     0.848600000000    -0.497456   
O240     O      0.339130000000     0.037940000000     0.814930000000    -0.504545   
O241     O      0.130210000000     0.875180000000     0.379910000000    -0.504012   
O242     O      0.177430000000     0.859730000000     0.405620000000    -0.49058    
O243     O      0.234210000000     0.948660000000     0.864170000000    -0.489332   
O244     O      0.145290000000     0.967480000000     0.862770000000    -0.494736   
O245     O      0.180920000000     0.937920000000     0.427880000000    -0.50228    
O246     O      0.114910000000     0.966260000000     0.394630000000    -0.512537   
O247     O      0.240600000000     0.885500000000     0.379510000000    -0.508024   
O248     O      0.219200000000     0.984040000000     0.408910000000    -0.518883   
O249     O      0.149430000000     0.891030000000     0.635000000000    -0.50052    
O250     O      0.162530000000     0.925470000000     0.665040000000    -0.498873   
O251     O      0.245310000000     0.937910000000     0.602240000000    -0.49519    
O252     O      0.168370000000     0.008990000000     0.640480000000    -0.509433   
O253     O      0.259650000000     0.925100000000     0.660010000000    -0.511896   
O254     O      0.165720000000     0.981550000000     0.608140000000    -0.506006   
O255     O      0.224240000000     0.878310000000     0.618330000000    -0.498725   
O256     O      0.263070000000     0.989620000000     0.645760000000    -0.508007   


