data_structure

_audit_creation_method RASPA-1.0
_audit_creation_date 2023-5-22
_audit_author_name 'Poobodin Mano'

_cell_length_a    38.3079
_cell_length_b    40.3311
_cell_length_c    38.3154
_cell_angle_alpha 90.0002
_cell_angle_beta  89.9999
_cell_angle_gamma 119.865
_cell_volume      51335.9

_symmetry_cell_setting          triclinic
_symmetry_space_group_name_Hall 'P 1'
_symmetry_space_group_name_H-M  'P 1'
_symmetry_Int_Tables_number     1

_symmetry_equiv_pos_as_xyz 'x,y,z'

loop_
_atom_site_label
_atom_site_type_symbol
_atom_site_fract_x
_atom_site_fract_y
_atom_site_fract_z
_atom_site_charge
C1       C      0.537140000000     0.674380000000     0.333150000000     0.406747   
C2       C      0.586730000000     0.630030000000     0.265220000000     0.403593   
C3       C      0.518880000000     0.556210000000     0.356130000000     0.400905   
C4       C      0.448800000000     0.562000000000     0.278320000000     0.410118   
C5       C      0.221050000000     0.644170000000     0.085530000000     0.40258    
C6       C      0.119900000000     0.544690000000     0.131190000000     0.406695   
C7       C      0.174570000000     0.522440000000     0.544730000000     0.401317   
C8       C      0.251960000000     0.569950000000     0.138000000000     0.411377   
C9       C      0.397190000000     0.865730000000     0.528370000000     0.402985   
C10      C      0.510230000000     0.955970000000     0.488550000000     0.409421   
C11      C      0.519220000000     0.890010000000     0.569750000000     0.401316   
C12      C      0.466950000000     0.825120000000     0.474480000000     0.409674   
C13      C      0.837020000000     0.395560000000     0.375500000000     0.407383   
C14      C      0.968740000000     0.471760000000     0.408030000000     0.407164   
C15      C      0.921840000000     0.482450000000     0.307310000000     0.407098   
C16      C      0.883750000000     0.512470000000     0.410640000000     0.409064   
C17      C      0.566330000000     0.357590000000     0.594580000000     0.407514   
C18      C      0.523480000000     0.404320000000     0.522290000000     0.403921   
C19      C      0.602770000000     0.483980000000     0.106210000000     0.402021   
C20      C      0.660280000000     0.456300000000     0.530260000000     0.407634   
C21      C      0.645390000000     0.207480000000     0.236570000000     0.405956   
C22      C      0.574650000000     0.074960000000     0.205490000000     0.407456   
C23      C      0.572120000000     0.116670000000     0.305020000000     0.405533   
C24      C      0.523970000000     0.144480000000     0.200370000000     0.404278   
C25      C      0.471210000000     0.162820000000     0.196840000000     0.0153764  
C26      C      0.565450000000     0.295930000000     0.094280000000     0.0137389  
C27      C      0.537460000000     0.314300000000     0.145360000000     0.0131333  
C28      C      0.527950000000     0.256250000000     0.093130000000    -0.101927   
C29      C      0.484300000000     0.203000000000     0.182790000000    -0.0996331  
C30      C      0.500080000000     0.274340000000     0.145840000000    -0.101758   
C31      C      0.499290000000     0.210600000000     0.144860000000     0.0179963  
C32      C      0.508970000000     0.244890000000     0.129300000000     0.0182519  
C33      C      0.493100000000     0.144010000000     0.143630000000     0.0167006  
C34      C      0.510230000000     0.183220000000     0.126540000000    -0.0995239  
C35      C      0.700500000000     0.483570000000     0.476640000000     0.0132425  
C36      C      0.883100000000     0.544420000000     0.465570000000     0.0162453  
C37      C      0.852940000000     0.553850000000     0.412270000000     0.0161978  
C38      C      0.843750000000     0.527170000000     0.486150000000    -0.0999266  
C39      C      0.739030000000     0.522080000000     0.471530000000    -0.101972   
C40      C      0.811630000000     0.538850000000     0.429460000000    -0.100053   
C41      C      0.775170000000     0.521190000000     0.487130000000     0.0182864  
C42      C      0.809920000000     0.531050000000     0.468790000000     0.0184061  
C43      C      0.730730000000     0.470070000000     0.529420000000     0.0133627  
C44      C      0.769180000000     0.508740000000     0.525250000000    -0.101966   
C45      C      0.762910000000     0.354730000000     0.373340000000     0.0154594  
C46      C      0.719480000000     0.248790000000     0.237990000000     0.0149179  
C47      C      0.675840000000     0.277240000000     0.245140000000     0.0151908  
C48      C      0.737910000000     0.261320000000     0.274430000000    -0.0998787  
C49      C      0.744770000000     0.342320000000     0.336830000000    -0.0999232  
C50      C      0.691130000000     0.291550000000     0.282050000000    -0.0996587  
C51      C      0.752660000000     0.312220000000     0.319770000000     0.0175928  
C52      C      0.729850000000     0.291220000000     0.291700000000     0.0168099  
C53      C      0.806130000000     0.325760000000     0.366730000000     0.0162966  
C54      C      0.791220000000     0.311710000000     0.329650000000    -0.100462   
C55      C      0.569160000000     0.009860000000     0.460150000000     0.0147458  
C56      C      0.529990000000     0.092920000000     0.357870000000     0.0121184  
C57      C      0.599130000000     0.097670000000     0.354460000000     0.0137619  
C58      C      0.536570000000     0.101430000000     0.397190000000    -0.102964   
C59      C      0.568580000000     0.028670000000     0.425740000000    -0.101901   
C60      C      0.604800000000     0.107700000000     0.393170000000    -0.103144   
C61      C      0.550700000000     0.054830000000     0.430050000000     0.0194224  
C62      C      0.564220000000     0.087590000000     0.410810000000     0.0197309  
C63      C      0.513460000000     0.018610000000     0.484130000000     0.0138044  
C64      C      0.511480000000     0.038100000000     0.450440000000    -0.101959   
C65      C      0.586030000000     0.919200000000     0.598080000000     0.0155489  
C66      C      0.538120000000     0.004860000000     0.197350000000     0.0132634  
C67      C      0.600660000000     0.047130000000     0.162140000000     0.0132054  
C68      C      0.553670000000     0.977090000000     0.204180000000    -0.102259   
C69      C      0.596740000000     0.955270000000     0.619140000000    -0.0994423  
C70      C      0.615980000000     0.019040000000     0.168560000000    -0.102362   
C71      C      0.570980000000     0.948890000000     0.651790000000     0.0177405  
C72      C      0.580420000000     0.978980000000     0.174020000000     0.0187913  
C73      C      0.524990000000     0.878610000000     0.632370000000     0.0158784  
C74      C      0.531080000000     0.911340000000     0.656490000000    -0.0997233  
C75      C      0.133990000000     0.458350000000     0.518360000000     0.0153003  
C76      C      0.042530000000     0.506610000000     0.416530000000     0.0131553  
C77      C      0.997400000000     0.451740000000     0.455930000000     0.0138841  
C78      C      0.072310000000     0.491780000000     0.414410000000    -0.102195   
C79      C      0.095440000000     0.451780000000     0.500290000000    -0.0993808  
C80      C      0.026550000000     0.436190000000     0.453940000000    -0.102549   
C81      C      0.101860000000     0.475280000000     0.467000000000     0.0169869  
C82      C      0.069220000000     0.468470000000     0.446760000000     0.0187514  
C83      C      0.178180000000     0.513280000000     0.481220000000     0.0153811  
C84      C      0.143090000000     0.510510000000     0.459700000000    -0.0996279  
C85      C      0.062750000000     0.554390000000     0.145130000000     0.014569   
C86      C      0.921300000000     0.460300000000     0.247030000000     0.0148001  
C87      C      0.952740000000     0.529820000000     0.259560000000     0.0148956  
C88      C      0.960220000000     0.464870000000     0.231500000000    -0.100471   
C89      C      0.042980000000     0.553820000000     0.180100000000    -0.102738   
C90      C      0.993110000000     0.537950000000     0.244120000000    -0.100895   
C91      C      0.016520000000     0.513420000000     0.193860000000     0.0185293  
C92      C      0.989240000000     0.505910000000     0.220120000000     0.0170178  
C93      C      0.066070000000     0.496620000000     0.167800000000     0.0155429  
C94      C      0.021830000000     0.482000000000     0.177010000000    -0.103744   
C95      C      0.327210000000     0.843220000000     0.509010000000     0.0152668  
C96      C      0.258470000000     0.711280000000     0.605200000000     0.0130096  
C97      C      0.236500000000     0.694690000000     0.541890000000     0.0129271  
C98      C      0.248010000000     0.743260000000     0.603510000000    -0.10248    
C99      C      0.294690000000     0.802160000000     0.517490000000    -0.0998296  
C100     C      0.226910000000     0.727290000000     0.540840000000    -0.102434   
C101     C      0.285440000000     0.793220000000     0.556400000000     0.0181514  
C102     C      0.254070000000     0.758270000000     0.566380000000     0.0191186  
C103     C      0.345680000000     0.859750000000     0.570850000000     0.0158935  
C104     C      0.315470000000     0.819690000000     0.583880000000    -0.100043   
C105     C      0.652520000000     0.635250000000     0.252080000000     0.0162231  
C106     C      0.596760000000     0.541130000000     0.118340000000     0.0128565  
C107     C      0.624310000000     0.514970000000     0.163950000000     0.0126791  
C108     C      0.629670000000     0.581880000000     0.127270000000    -0.102      
C109     C      0.651310000000     0.604590000000     0.227840000000    -0.0998845  
C110     C      0.657500000000     0.555650000000     0.172800000000    -0.101866   
C111     C      0.640190000000     0.607040000000     0.189860000000     0.0184549  
C112     C      0.643010000000     0.583840000000     0.165010000000     0.0184085  
C113     C      0.620970000000     0.657620000000     0.209060000000     0.0159055  
C114     C      0.619180000000     0.629880000000     0.180840000000    -0.0997352  
C115     C      0.505870000000     0.533130000000     0.417150000000     0.0133809  
C116     C      0.488310000000     0.378800000000     0.466180000000     0.0166066  
C117     C      0.461740000000     0.406690000000     0.508370000000     0.0162787  
C118     C      0.497280000000     0.409430000000     0.438530000000    -0.0998264  
C119     C      0.473120000000     0.493590000000     0.429350000000    -0.101596   
C120     C      0.469250000000     0.439930000000     0.484360000000    -0.0997598  
C121     C      0.485380000000     0.463520000000     0.422330000000     0.0181613  
C122     C      0.481860000000     0.437130000000     0.446930000000     0.0181318  
C123     C      0.530840000000     0.503530000000     0.373300000000     0.0132743  
C124     C      0.498810000000     0.463360000000     0.384820000000    -0.101613   
C125     C      0.534180000000     0.734210000000     0.327670000000     0.0149077  
C126     C      0.469340000000     0.765120000000     0.469930000000     0.0148406  
C127     C      0.449740000000     0.789630000000     0.418490000000     0.0146808  
C128     C      0.502780000000     0.763210000000     0.449950000000    -0.100689   
C129     C      0.505700000000     0.742150000000     0.349750000000    -0.100227   
C130     C      0.479960000000     0.785920000000     0.394880000000    -0.100674   
C131     C      0.514570000000     0.746620000000     0.389060000000     0.0176079  
C132     C      0.497280000000     0.762070000000     0.410320000000     0.0176956  
C133     C      0.564670000000     0.722910000000     0.380060000000     0.0156604  
C134     C      0.535550000000     0.726310000000     0.405010000000    -0.10034    
C135     C      0.374600000000     0.530860000000     0.282040000000     0.016192   
C136     C      0.316600000000     0.570080000000     0.140960000000     0.013856   
C137     C      0.287310000000     0.582160000000     0.194450000000     0.015233   
C138     C      0.325620000000     0.542150000000     0.160770000000    -0.101386   
C139     C      0.352380000000     0.546750000000     0.260920000000    -0.100184   
C140     C      0.293880000000     0.553720000000     0.215710000000    -0.101808   
C141     C      0.352260000000     0.541040000000     0.221350000000     0.0177022  
C142     C      0.327110000000     0.547650000000     0.200370000000     0.0181664  
C143     C      0.406310000000     0.521100000000     0.229860000000     0.0154639  
C144     C      0.385690000000     0.535730000000     0.204960000000    -0.100099   
C145     C      0.537150000000     0.674380000000     0.833150000000     0.406737   
C146     C      0.586720000000     0.630030000000     0.765220000000     0.403781   
C147     C      0.518880000000     0.556210000000     0.856130000000     0.400752   
C148     C      0.448800000000     0.562000000000     0.778320000000     0.409897   
C149     C      0.221050000000     0.644170000000     0.585520000000     0.402655   
C150     C      0.119900000000     0.544690000000     0.631190000000     0.406718   
C151     C      0.174570000000     0.522440000000     0.044730000000     0.401388   
C152     C      0.251960000000     0.569950000000     0.638000000000     0.411381   
C153     C      0.397190000000     0.865730000000     0.028370000000     0.402958   
C154     C      0.510230000000     0.955970000000     0.988550000000     0.409459   
C155     C      0.519220000000     0.890010000000     0.069750000000     0.401268   
C156     C      0.466950000000     0.825110000000     0.974480000000     0.409782   
C157     C      0.837020000000     0.395560000000     0.875500000000     0.407605   
C158     C      0.968740000000     0.471760000000     0.908030000000     0.407164   
C159     C      0.921840000000     0.482460000000     0.807310000000     0.407089   
C160     C      0.883750000000     0.512470000000     0.910640000000     0.409066   
C161     C      0.566330000000     0.357590000000     0.094580000000     0.407336   
C162     C      0.523480000000     0.404320000000     0.022290000000     0.403914   
C163     C      0.602770000000     0.483990000000     0.606210000000     0.402248   
C164     C      0.660280000000     0.456300000000     0.030260000000     0.40763    
C165     C      0.645390000000     0.207480000000     0.736570000000     0.405957   
C166     C      0.574650000000     0.074960000000     0.705490000000     0.407457   
C167     C      0.572120000000     0.116670000000     0.805020000000     0.405531   
C168     C      0.523970000000     0.144480000000     0.700370000000     0.404374   
C169     C      0.471200000000     0.162820000000     0.696840000000     0.0152753  
C170     C      0.565450000000     0.295930000000     0.594280000000     0.013758   
C171     C      0.537460000000     0.314310000000     0.645360000000     0.0131034  
C172     C      0.527950000000     0.256250000000     0.593130000000    -0.101961   
C173     C      0.484300000000     0.203000000000     0.682790000000    -0.0995334  
C174     C      0.500080000000     0.274340000000     0.645840000000    -0.101748   
C175     C      0.499290000000     0.210600000000     0.644860000000     0.017967   
C176     C      0.508970000000     0.244890000000     0.629300000000     0.0182692  
C177     C      0.493100000000     0.144010000000     0.643630000000     0.0167208  
C178     C      0.510240000000     0.183220000000     0.626540000000    -0.0995653  
C179     C      0.700500000000     0.483570000000     0.976640000000     0.0132489  
C180     C      0.883100000000     0.544420000000     0.965570000000     0.0162198  
C181     C      0.852940000000     0.553860000000     0.912270000000     0.0161086  
C182     C      0.843750000000     0.527170000000     0.986140000000    -0.0997984  
C183     C      0.739030000000     0.522080000000     0.971530000000    -0.101984   
C184     C      0.811630000000     0.538850000000     0.929460000000    -0.0999989  
C185     C      0.775170000000     0.521180000000     0.987130000000     0.0183412  
C186     C      0.809920000000     0.531050000000     0.968790000000     0.018362   
C187     C      0.730720000000     0.470070000000     0.029420000000     0.0134376  
C188     C      0.769180000000     0.508740000000     0.025250000000    -0.102035   
C189     C      0.762910000000     0.354730000000     0.873340000000     0.0154678  
C190     C      0.719480000000     0.248790000000     0.737990000000     0.014922   
C191     C      0.675840000000     0.277240000000     0.745140000000     0.0152206  
C192     C      0.737910000000     0.261320000000     0.774430000000    -0.0998888  
C193     C      0.744770000000     0.342320000000     0.836830000000    -0.0999239  
C194     C      0.691130000000     0.291560000000     0.782050000000    -0.0997595  
C195     C      0.752660000000     0.312220000000     0.819770000000     0.0175818  
C196     C      0.729840000000     0.291220000000     0.791700000000     0.0168382  
C197     C      0.806130000000     0.325760000000     0.866730000000     0.0163083  
C198     C      0.791220000000     0.311700000000     0.829650000000    -0.100484   
C199     C      0.569160000000     0.009860000000     0.960150000000     0.0147287  
C200     C      0.529990000000     0.092920000000     0.857870000000     0.0121102  
C201     C      0.599140000000     0.097670000000     0.854460000000     0.0136597  
C202     C      0.536570000000     0.101430000000     0.897190000000    -0.102943   
C203     C      0.568570000000     0.028670000000     0.925740000000    -0.101875   
C204     C      0.604800000000     0.107700000000     0.893170000000    -0.103096   
C205     C      0.550710000000     0.054830000000     0.930050000000     0.0194623  
C206     C      0.564230000000     0.087590000000     0.910810000000     0.0197038  
C207     C      0.513460000000     0.018610000000     0.984130000000     0.0138535  
C208     C      0.511480000000     0.038100000000     0.950440000000    -0.102014   
C209     C      0.586030000000     0.919200000000     0.098080000000     0.0155363  
C210     C      0.538120000000     0.004860000000     0.697350000000     0.0132567  
C211     C      0.600670000000     0.047130000000     0.662140000000     0.0131503  
C212     C      0.553670000000     0.977090000000     0.704180000000    -0.102226   
C213     C      0.596740000000     0.955270000000     0.119140000000    -0.0994256  
C214     C      0.615980000000     0.019040000000     0.668560000000    -0.102317   
C215     C      0.570980000000     0.948890000000     0.151790000000     0.0177076  
C216     C      0.580420000000     0.978970000000     0.674020000000     0.0187398  
C217     C      0.524990000000     0.878600000000     0.132370000000     0.0157973  
C218     C      0.531080000000     0.911340000000     0.156490000000    -0.0996762  
C219     C      0.133990000000     0.458350000000     0.018360000000     0.0153191  
C220     C      0.042530000000     0.506610000000     0.916530000000     0.0131155  
C221     C      0.997400000000     0.451740000000     0.955930000000     0.0138671  
C222     C      0.072320000000     0.491780000000     0.914410000000    -0.102209   
C223     C      0.095440000000     0.451780000000     0.000290000000    -0.0994592  
C224     C      0.026550000000     0.436190000000     0.953940000000    -0.102489   
C225     C      0.101860000000     0.475280000000     0.967000000000     0.0170406  
C226     C      0.069230000000     0.468470000000     0.946760000000     0.0187154  
C227     C      0.178180000000     0.513280000000     0.981220000000     0.0154123  
C228     C      0.143090000000     0.510510000000     0.959700000000    -0.0996502  
C229     C      0.062750000000     0.554380000000     0.645130000000     0.0145704  
C230     C      0.921300000000     0.460300000000     0.747030000000     0.0148602  
C231     C      0.952740000000     0.529820000000     0.759560000000     0.0148739  
C232     C      0.960220000000     0.464870000000     0.731510000000    -0.100516   
C233     C      0.042980000000     0.553820000000     0.680100000000    -0.102678   
C234     C      0.993110000000     0.537950000000     0.744120000000    -0.100848   
C235     C      0.016520000000     0.513420000000     0.693870000000     0.0184858  
C236     C      0.989240000000     0.505910000000     0.720120000000     0.017028   
C237     C      0.066070000000     0.496620000000     0.667800000000     0.0155857  
C238     C      0.021830000000     0.482000000000     0.677010000000    -0.103697   
C239     C      0.327210000000     0.843220000000     0.009010000000     0.0152305  
C240     C      0.258470000000     0.711280000000     0.105200000000     0.0130037  
C241     C      0.236500000000     0.694690000000     0.041890000000     0.0129361  
C242     C      0.248010000000     0.743260000000     0.103510000000    -0.102445   
C243     C      0.294690000000     0.802160000000     0.017490000000    -0.0998222  
C244     C      0.226910000000     0.727290000000     0.040840000000    -0.102454   
C245     C      0.285440000000     0.793220000000     0.056400000000     0.0181634  
C246     C      0.254070000000     0.758270000000     0.066380000000     0.0191107  
C247     C      0.345680000000     0.859750000000     0.070850000000     0.0159091  
C248     C      0.315470000000     0.819690000000     0.083880000000    -0.100094   
C249     C      0.652520000000     0.635250000000     0.752080000000     0.0162303  
C250     C      0.596750000000     0.541130000000     0.618340000000     0.0127596  
C251     C      0.624310000000     0.514970000000     0.663940000000     0.0127954  
C252     C      0.629670000000     0.581880000000     0.627270000000    -0.101915   
C253     C      0.651310000000     0.604590000000     0.727840000000    -0.0998952  
C254     C      0.657500000000     0.555650000000     0.672800000000    -0.101902   
C255     C      0.640190000000     0.607040000000     0.689860000000     0.0184746  
C256     C      0.643010000000     0.583840000000     0.665010000000     0.0183904  
C257     C      0.620970000000     0.657620000000     0.709060000000     0.015929   
C258     C      0.619180000000     0.629880000000     0.680840000000    -0.0997927  
C259     C      0.505870000000     0.533120000000     0.917150000000     0.0134077  
C260     C      0.488310000000     0.378800000000     0.966180000000     0.0165794  
C261     C      0.461740000000     0.406690000000     0.008370000000     0.0162616  
C262     C      0.497280000000     0.409440000000     0.938530000000    -0.0997981  
C263     C      0.473120000000     0.493580000000     0.929350000000    -0.101598   
C264     C      0.469250000000     0.439930000000     0.984360000000    -0.0997617  
C265     C      0.485380000000     0.463520000000     0.922330000000     0.018181   
C266     C      0.481860000000     0.437130000000     0.946930000000     0.018149   
C267     C      0.530840000000     0.503530000000     0.873300000000     0.0132725  
C268     C      0.498810000000     0.463360000000     0.884820000000    -0.101619   
C269     C      0.534180000000     0.734220000000     0.827670000000     0.0148436  
C270     C      0.469340000000     0.765120000000     0.969930000000     0.0148531  
C271     C      0.449740000000     0.789630000000     0.918490000000     0.0147061  
C272     C      0.502780000000     0.763210000000     0.949950000000    -0.100693   
C273     C      0.505700000000     0.742150000000     0.849750000000    -0.100203   
C274     C      0.479960000000     0.785920000000     0.894880000000    -0.100681   
C275     C      0.514570000000     0.746620000000     0.889060000000     0.017613   
C276     C      0.497280000000     0.762070000000     0.910320000000     0.0176983  
C277     C      0.564670000000     0.722910000000     0.880060000000     0.0156431  
C278     C      0.535550000000     0.726310000000     0.905010000000    -0.100378   
C279     C      0.374600000000     0.530860000000     0.782040000000     0.0161667  
C280     C      0.316600000000     0.570080000000     0.640960000000     0.013855   
C281     C      0.287310000000     0.582160000000     0.694450000000     0.0152373  
C282     C      0.325620000000     0.542150000000     0.660770000000    -0.101379   
C283     C      0.352380000000     0.546740000000     0.760920000000    -0.100117   
C284     C      0.293880000000     0.553720000000     0.715700000000    -0.101716   
C285     C      0.352260000000     0.541040000000     0.721350000000     0.017692   
C286     C      0.327110000000     0.547650000000     0.700370000000     0.0181564  
C287     C      0.406310000000     0.521100000000     0.729860000000     0.0154475  
C288     C      0.385690000000     0.535730000000     0.704950000000    -0.100118   
H1       H      0.457900000000     0.207210000000     0.185610000000     0.0437593  
H2       H      0.588810000000     0.294310000000     0.110260000000     0.029698   
H3       H      0.460850000000     0.126470000000     0.136130000000     0.0256022  
H4       H      0.498750000000     0.177960000000     0.099290000000     0.0435591  
H5       H      0.537380000000     0.236740000000     0.081740000000     0.0441012  
H6       H      0.489670000000     0.268190000000     0.173230000000     0.0441214  
H7       H      0.472580000000     0.163560000000     0.225840000000     0.0407901  
H8       H      0.577490000000     0.304260000000     0.067350000000     0.0407409  
H9       H      0.543600000000     0.196730000000     0.125950000000     0.0536424  
H10      H      0.475740000000     0.274990000000     0.630600000000     0.0514929  
H11      H      0.509060000000     0.129280000000     0.133560000000     0.0385315  
H12      H      0.559710000000     0.314650000000     0.164230000000     0.0295474  
H13      H      0.508950000000     0.224080000000     0.199750000000     0.0531077  
H14      H      0.505650000000     0.256780000000     0.574920000000     0.0518981  
H15      H      0.528880000000     0.335430000000     0.154530000000     0.0407474  
H16      H      0.439280000000     0.143490000000     0.189230000000     0.0263194  
H17      H      0.741490000000     0.528700000000     0.443330000000     0.0440726  
H18      H      0.899440000000     0.575940000000     0.469590000000     0.0254496  
H19      H      0.735150000000     0.447850000000     0.516230000000     0.0301512  
H20      H      0.793950000000     0.505790000000     0.536780000000     0.0439242  
H21      H      0.851440000000     0.541850000000     0.511860000000     0.0434918  
H22      H      0.802610000000     0.560630000000     0.424200000000     0.0437057  
H23      H      0.674380000000     0.486210000000     0.467670000000     0.0403204  
H24      H      0.902400000000     0.533320000000     0.475990000000     0.0384481  
H25      H      0.766480000000     0.530490000000     0.541030000000     0.0510676  
H26      H      0.789910000000     0.511770000000     0.416240000000     0.0534703  
H27      H      0.725850000000     0.462820000000     0.557650000000     0.0403251  
H28      H      0.870680000000     0.585340000000     0.416310000000     0.0258491  
H29      H      0.735600000000     0.544680000000     0.485050000000     0.0513229  
H30      H      0.832980000000     0.496270000000     0.490280000000     0.053386   
H31      H      0.849050000000     0.548680000000     0.383650000000     0.0398813  
H32      H      0.702230000000     0.462010000000     0.459720000000     0.0296904  
H33      H      0.712010000000     0.331460000000     0.339880000000     0.044006   
H34      H      0.738290000000     0.271860000000     0.219140000000     0.026841   
H35      H      0.786400000000     0.302900000000     0.385400000000     0.026212   
H36      H      0.786690000000     0.282320000000     0.328150000000     0.044082   
H37      H      0.770710000000     0.272450000000     0.271220000000     0.0441293  
H38      H      0.695590000000     0.320920000000     0.283410000000     0.0441346  
H39      H      0.762300000000     0.381000000000     0.381130000000     0.0387268  
H40      H      0.720260000000     0.222620000000     0.230120000000     0.0403147  
H41      H      0.815260000000     0.330100000000     0.310880000000     0.0549307  
H42      H      0.667300000000     0.273270000000     0.301030000000     0.0521096  
H43      H      0.837220000000     0.330700000000     0.369850000000     0.0400914  
H44      H      0.695200000000     0.300090000000     0.226310000000     0.0265592  
H45      H      0.757490000000     0.367910000000     0.319630000000     0.0528814  
H46      H      0.725510000000     0.235730000000     0.291610000000     0.0527411  
H47      H      0.644620000000     0.272030000000     0.242280000000     0.0383718  
H48      H      0.743770000000     0.331720000000     0.392120000000     0.0263208  
H49      H      0.599460000000     0.042810000000     0.415080000000     0.0447577  
H50      H      0.510110000000     0.061590000000     0.354260000000     0.0315269  
H51      H      0.533860000000     0.041110000000     0.502770000000     0.0281991  
H52      H      0.504650000000     0.060660000000     0.458660000000     0.0441523  
H53      H      0.506730000000     0.088320000000     0.409970000000     0.0443111  
H54      H      0.627580000000     0.101980000000     0.405150000000     0.0440241  
H55      H      0.578830000000     0.988490000000     0.455070000000     0.0404678  
H56      H      0.513730000000     0.107100000000     0.347200000000     0.0406551  
H57      H      0.486500000000     0.017080000000     0.433740000000     0.0521187  
H58      H      0.617540000000     0.139120000000     0.395810000000     0.0511805  
H59      H      0.482970000000     0.003450000000     0.496070000000     0.0397207  
H60      H      0.589460000000     0.066860000000     0.351300000000     0.0289526  
H61      H      0.549480000000     0.005870000000     0.406830000000     0.0541068  
H62      H      0.550920000000     0.132810000000     0.401350000000     0.0502886  
H63      H      0.628790000000     0.114370000000     0.341290000000     0.0392958  
H64      H      0.591980000000     0.032240000000     0.477560000000     0.027598   
H65      H      0.628920000000     0.967990000000     0.626590000000     0.0436665  
H66      H      0.517500000000     0.994380000000     0.174480000000     0.0302186  
H67      H      0.540700000000     0.864300000000     0.643990000000     0.0262752  
H68      H      0.528710000000     0.900710000000     0.683630000000     0.0438584  
H69      H      0.527550000000     0.948470000000     0.209350000000     0.0441917  
H70      H      0.636290000000     0.021810000000     0.146860000000     0.044188   
H71      H      0.598460000000     0.927240000000     0.571220000000     0.0392788  
H72      H      0.520240000000     0.004600000000     0.220310000000     0.0405793  
H73      H      0.506000000000     0.917200000000     0.651810000000     0.0537781  
H74      H      0.634740000000     0.027820000000     0.192590000000     0.052271   
H75      H      0.492410000000     0.857020000000     0.630790000000     0.0408253  
H76      H      0.585120000000     0.040390000000     0.136430000000     0.0302204  
H77      H      0.593480000000     0.975640000000     0.601730000000     0.0524406  
H78      H      0.571890000000     0.985830000000     0.228530000000     0.052108   
H79      H      0.626930000000     0.076560000000     0.160560000000     0.0418896  
H80      H      0.600570000000     0.904290000000     0.610680000000     0.0260121  
H81      H      0.077890000000     0.420750000000     0.494210000000     0.043539   
H82      H      0.052770000000     0.528690000000     0.437390000000     0.0294603  
H83      H      0.189100000000     0.495360000000     0.468420000000     0.0260755  
H84      H      0.151370000000     0.510800000000     0.431870000000     0.0437757  
H85      H      0.102440000000     0.516850000000     0.409830000000     0.0440852  
H86      H      0.022980000000     0.420250000000     0.478390000000     0.0441499  
H87      H      0.127140000000     0.447750000000     0.545700000000     0.0389767  
H88      H      0.043290000000     0.520790000000     0.391420000000     0.039596   
H89      H      0.140830000000     0.536490000000     0.464960000000     0.0532265  
H90      H      0.017190000000     0.415150000000     0.432260000000     0.0521105  
H91      H      0.203490000000     0.543310000000     0.481210000000     0.0407013  
H92      H      0.004410000000     0.469650000000     0.479810000000     0.0296831  
H93      H      0.078030000000     0.458840000000     0.519140000000     0.0519642  
H94      H      0.065030000000     0.473030000000     0.391120000000     0.0513571  
H95      H      0.966260000000     0.427260000000     0.458750000000     0.041148   
H96      H      0.145280000000     0.441280000000     0.504500000000     0.0258533  
H97      H      0.066850000000     0.570700000000     0.199560000000     0.0515705  
H98      H      0.903330000000     0.463040000000     0.225560000000     0.0263217  
H99      H      0.083760000000     0.501800000000     0.192230000000     0.0346115  
H100     H      0.012800000000     0.457210000000     0.194640000000     0.0447179  
H101     H      0.951040000000     0.444790000000     0.209070000000     0.0437285  
H102     H      0.006240000000     0.566080000000     0.230950000000     0.0438846  
H103     H      0.039090000000     0.541520000000     0.124660000000     0.0293193  
H104     H      0.903330000000     0.431140000000     0.258260000000     0.0386814  
H105     H      0.003100000000     0.471830000000     0.153020000000     0.0504541  
H106     H      0.013680000000     0.540940000000     0.265870000000     0.0542675  
H107     H      0.068400000000     0.473990000000     0.153110000000     0.036468   
H108     H      0.934750000000     0.533140000000     0.238460000000     0.0267151  
H109     H      0.024630000000     0.567790000000     0.175660000000     0.0444577  
H110     H      0.975410000000     0.456160000000     0.251210000000     0.0523565  
H111     H      0.958110000000     0.551310000000     0.280110000000     0.0402596  
H112     H      0.083480000000     0.584620000000     0.137570000000     0.0379694  
H113     H      0.267170000000     0.797250000000     0.503410000000     0.0437134  
H114     H      0.291370000000     0.723880000000     0.600820000000     0.0297786  
H115     H      0.330490000000     0.877160000000     0.570240000000     0.0266     
H116     H      0.299150000000     0.823720000000     0.605960000000     0.0439395  
H117     H      0.265590000000     0.764900000000     0.623600000000     0.0441179  
H118     H      0.228740000000     0.736900000000     0.513540000000     0.0440404  
H119     H      0.339090000000     0.844300000000     0.482300000000     0.0396384  
H120     H      0.251730000000     0.698930000000     0.131940000000     0.0409154  
H121     H      0.332530000000     0.806040000000     0.593930000000     0.053469   
H122     H      0.195070000000     0.715890000000     0.048920000000     0.0522968  
H123     H      0.371210000000     0.873590000000     0.589530000000     0.0408827  
H124     H      0.266870000000     0.705090000000     0.530390000000     0.0295782  
H125     H      0.304430000000     0.782450000000     0.506730000000     0.0520633  
H126     H      0.215850000000     0.731320000000     0.110800000000     0.0521746  
H127     H      0.214440000000     0.670970000000     0.525140000000     0.0419691  
H128     H      0.313030000000     0.861520000000     0.509020000000     0.0264868  
H129     H      0.681710000000     0.607530000000     0.229040000000     0.0437683  
H130     H      0.569100000000     0.534660000000     0.133160000000     0.030538   
H131     H      0.650060000000     0.684840000000     0.206390000000     0.0252367  
H132     H      0.632980000000     0.647430000000     0.157120000000     0.0435811  
H133     H      0.618160000000     0.601370000000     0.120650000000     0.0439089  
H134     H      0.666720000000     0.555590000000     0.200140000000     0.0442092  
H135     H      0.651890000000     0.626520000000     0.279710000000     0.0396036  
H136     H      0.589550000000     0.539820000000     0.090090000000     0.040771   
H137     H      0.586980000000     0.609240000000     0.175280000000     0.0538676  
H138     H      0.684310000000     0.563050000000     0.156340000000     0.0511259  
H139     H      0.596440000000     0.664320000000     0.204730000000     0.0392866  
H140     H      0.599050000000     0.506460000000     0.182660000000     0.0312794  
H141     H      0.628960000000     0.576080000000     0.238360000000     0.0545877  
H142     H      0.656020000000     0.589920000000     0.110000000000     0.0510719  
H143     H      0.636370000000     0.495210000000     0.167720000000     0.0414368  
H144     H      0.681480000000     0.662240000000     0.247820000000     0.0253678  
H145     H      0.467360000000     0.496600000000     0.457140000000     0.0443151  
H146     H      0.457070000000     0.354840000000     0.462100000000     0.0248874  
H147     H      0.559000000000     0.511710000000     0.388060000000     0.0301707  
H148     H      0.511770000000     0.444580000000     0.380390000000     0.0443072  
H149     H      0.483560000000     0.393940000000     0.413840000000     0.0438517  
H150     H      0.440890000000     0.441130000000     0.484000000000     0.043781   
H151     H      0.494760000000     0.553690000000     0.420400000000     0.0417375  
H152     H      0.509000000000     0.367140000000     0.462740000000     0.0388958  
H153     H      0.472150000000     0.453050000000     0.367460000000     0.0515919  
H154     H      0.493420000000     0.466780000000     0.496200000000     0.0544451  
H155     H      0.537390000000     0.502790000000     0.345140000000     0.0411861  
H156     H      0.431000000000     0.382380000000     0.503060000000     0.0251236  
H157     H      0.444840000000     0.485460000000     0.414850000000     0.0519255  
H158     H      0.530480000000     0.426460000000     0.435030000000     0.0549112  
H159     H      0.462610000000     0.415290000000     0.536080000000     0.0391347  
H160     H      0.532600000000     0.542700000000     0.434350000000     0.030206   
H161     H      0.507840000000     0.768500000000     0.338620000000     0.0436102  
H162     H      0.441180000000     0.737040000000     0.467370000000     0.0278667  
H163     H      0.591560000000     0.751770000000     0.376650000000     0.0264237  
H164     H      0.553770000000     0.742040000000     0.428140000000     0.0442491  
H165     H      0.502590000000     0.737200000000     0.459710000000     0.0444773  
H166     H      0.463560000000     0.773450000000     0.370160000000     0.0438548  
H167     H      0.520030000000     0.722450000000     0.301920000000     0.0390117  
H168     H      0.477390000000     0.769830000000     0.498080000000     0.039505   
H169     H      0.512210000000     0.697180000000     0.413370000000     0.0540327  
H170     H      0.505430000000     0.815000000000     0.389180000000     0.0518482  
H171     H      0.574920000000     0.704020000000     0.391860000000     0.0403418  
H172     H      0.420280000000     0.762700000000     0.416470000000     0.0272677  
H173     H      0.474420000000     0.718240000000     0.345970000000     0.0522609  
H174     H      0.532200000000     0.788560000000     0.456720000000     0.0521082  
H175     H      0.445290000000     0.813220000000     0.408720000000     0.0398595  
H176     H      0.562100000000     0.761930000000     0.322730000000     0.0260097  
H177     H      0.321130000000     0.532160000000     0.271230000000     0.0436738  
H178     H      0.343930000000     0.598930000000     0.141820000000     0.0284765  
H179     H      0.386650000000     0.489610000000     0.232700000000     0.0260001  
H180     H      0.373440000000     0.514670000000     0.183290000000     0.0438482  
H181     H      0.354360000000     0.546480000000     0.149810000000     0.0440652  
H182     H      0.300370000000     0.565420000000     0.242560000000     0.0441943  
H183     H      0.380130000000     0.542850000000     0.308910000000     0.0381385  
H184     H      0.310540000000     0.561160000000     0.113140000000     0.0388     
H185     H      0.408940000000     0.563720000000     0.194190000000     0.0525385  
H186     H      0.265470000000     0.525750000000     0.216400000000     0.0527287  
H187     H      0.435230000000     0.526390000000     0.218220000000     0.0392781  
H188     H      0.313970000000     0.611130000000     0.197970000000     0.0285707  
H189     H      0.366480000000     0.577900000000     0.266270000000     0.0531353  
H190     H      0.301850000000     0.512390000000     0.154720000000     0.051402   
H191     H      0.260710000000     0.582930000000     0.205050000000     0.0409947  
H192     H      0.354810000000     0.499320000000     0.284240000000     0.0251723  
H193     H      0.457890000000     0.207210000000     0.685610000000     0.0437153  
H194     H      0.588810000000     0.294310000000     0.610260000000     0.0296905  
H195     H      0.460850000000     0.126470000000     0.636130000000     0.0255997  
H196     H      0.498760000000     0.177960000000     0.599290000000     0.0435701  
H197     H      0.537380000000     0.236740000000     0.581750000000     0.0441233  
H198     H      0.489670000000     0.268190000000     0.673230000000     0.0441215  
H199     H      0.472580000000     0.163560000000     0.725840000000     0.0408152  
H200     H      0.577490000000     0.304260000000     0.567350000000     0.0407372  
H201     H      0.543600000000     0.196730000000     0.625950000000     0.0536725  
H202     H      0.475740000000     0.274990000000     0.130600000000     0.0514923  
H203     H      0.509060000000     0.129280000000     0.633560000000     0.0385281  
H204     H      0.559710000000     0.314650000000     0.664230000000     0.0295555  
H205     H      0.508950000000     0.224080000000     0.699750000000     0.053088   
H206     H      0.505650000000     0.256780000000     0.074920000000     0.0518833  
H207     H      0.528880000000     0.335430000000     0.654530000000     0.0407514  
H208     H      0.439280000000     0.143490000000     0.689230000000     0.026347   
H209     H      0.741490000000     0.528700000000     0.943330000000     0.0440771  
H210     H      0.899450000000     0.575940000000     0.969590000000     0.0254595  
H211     H      0.735150000000     0.447850000000     0.016240000000     0.0301204  
H212     H      0.793950000000     0.505790000000     0.036780000000     0.0439332  
H213     H      0.851440000000     0.541850000000     0.011860000000     0.0434187  
H214     H      0.802610000000     0.560630000000     0.924200000000     0.043696   
H215     H      0.674390000000     0.486210000000     0.967670000000     0.0403258  
H216     H      0.902400000000     0.533320000000     0.975990000000     0.0384577  
H217     H      0.766480000000     0.530490000000     0.041030000000     0.0510761  
H218     H      0.789910000000     0.511770000000     0.916240000000     0.0534604  
H219     H      0.725850000000     0.462820000000     0.057650000000     0.0403023  
H220     H      0.870680000000     0.585340000000     0.916310000000     0.0258751  
H221     H      0.735600000000     0.544680000000     0.985050000000     0.051335   
H222     H      0.832980000000     0.496270000000     0.990280000000     0.0533588  
H223     H      0.849050000000     0.548680000000     0.883650000000     0.0399089  
H224     H      0.702230000000     0.462010000000     0.959720000000     0.0296958  
H225     H      0.712010000000     0.331460000000     0.839880000000     0.044006   
H226     H      0.738290000000     0.271860000000     0.719140000000     0.0268418  
H227     H      0.786400000000     0.302900000000     0.885400000000     0.0262117  
H228     H      0.786690000000     0.282320000000     0.828150000000     0.044114   
H229     H      0.770710000000     0.272450000000     0.771220000000     0.0441329  
H230     H      0.695600000000     0.320920000000     0.783410000000     0.0441957  
H231     H      0.762300000000     0.381000000000     0.881130000000     0.0387242  
H232     H      0.720260000000     0.222620000000     0.730120000000     0.0403146  
H233     H      0.815270000000     0.330100000000     0.810880000000     0.0549175  
H234     H      0.667300000000     0.273270000000     0.801030000000     0.0521303  
H235     H      0.837220000000     0.330700000000     0.869850000000     0.0400839  
H236     H      0.695190000000     0.300090000000     0.726310000000     0.0265492  
H237     H      0.757490000000     0.367910000000     0.819630000000     0.0528787  
H238     H      0.725510000000     0.235730000000     0.791610000000     0.0527429  
H239     H      0.644620000000     0.272030000000     0.742280000000     0.0383662  
H240     H      0.743770000000     0.331720000000     0.892120000000     0.0263214  
H241     H      0.599460000000     0.042810000000     0.915080000000     0.044731   
H242     H      0.510110000000     0.061590000000     0.854260000000     0.0315306  
H243     H      0.533860000000     0.041110000000     0.002770000000     0.0281655  
H244     H      0.504650000000     0.060660000000     0.958660000000     0.0441702  
H245     H      0.506730000000     0.088320000000     0.909970000000     0.0443091  
H246     H      0.627580000000     0.101980000000     0.905150000000     0.0440157  
H247     H      0.578830000000     0.988490000000     0.955070000000     0.0404736  
H248     H      0.513730000000     0.107100000000     0.847200000000     0.0406587  
H249     H      0.486500000000     0.017080000000     0.933750000000     0.052147   
H250     H      0.617540000000     0.139120000000     0.895810000000     0.0511739  
H251     H      0.482970000000     0.003450000000     0.996070000000     0.0397179  
H252     H      0.589460000000     0.066860000000     0.851300000000     0.0289829  
H253     H      0.549480000000     0.005870000000     0.906830000000     0.0541049  
H254     H      0.550920000000     0.132810000000     0.901350000000     0.0502875  
H255     H      0.628790000000     0.114370000000     0.841290000000     0.0393251  
H256     H      0.591980000000     0.032240000000     0.977560000000     0.0276076  
H257     H      0.628920000000     0.967990000000     0.126590000000     0.043661   
H258     H      0.517500000000     0.994380000000     0.674480000000     0.0302232  
H259     H      0.540700000000     0.864300000000     0.143990000000     0.0262965  
H260     H      0.528710000000     0.900710000000     0.183630000000     0.043848   
H261     H      0.527550000000     0.948470000000     0.709350000000     0.0441833  
H262     H      0.636290000000     0.021810000000     0.646860000000     0.0441798  
H263     H      0.598460000000     0.927240000000     0.071230000000     0.0392759  
H264     H      0.520240000000     0.004600000000     0.720310000000     0.0405825  
H265     H      0.506000000000     0.917200000000     0.151810000000     0.0537631  
H266     H      0.634740000000     0.027820000000     0.692590000000     0.0522624  
H267     H      0.492410000000     0.857020000000     0.130790000000     0.040851   
H268     H      0.585120000000     0.040390000000     0.636430000000     0.0302417  
H269     H      0.593480000000     0.975640000000     0.101730000000     0.0524323  
H270     H      0.571890000000     0.985820000000     0.728530000000     0.0520978  
H271     H      0.626930000000     0.076560000000     0.660570000000     0.0419126  
H272     H      0.600570000000     0.904280000000     0.110680000000     0.0260122  
H273     H      0.077890000000     0.420750000000     0.994210000000     0.0435753  
H274     H      0.052770000000     0.528690000000     0.937390000000     0.0294743  
H275     H      0.189100000000     0.495360000000     0.968420000000     0.0260784  
H276     H      0.151370000000     0.510800000000     0.931870000000     0.0437833  
H277     H      0.102440000000     0.516850000000     0.909830000000     0.0441063  
H278     H      0.022980000000     0.420240000000     0.978390000000     0.0441272  
H279     H      0.127140000000     0.447750000000     0.045700000000     0.0389681  
H280     H      0.043290000000     0.520780000000     0.891420000000     0.0396081  
H281     H      0.140830000000     0.536490000000     0.964960000000     0.0532347  
H282     H      0.017190000000     0.415150000000     0.932260000000     0.0520989  
H283     H      0.203490000000     0.543310000000     0.981210000000     0.0407026  
H284     H      0.004410000000     0.469650000000     0.979810000000     0.0296939  
H285     H      0.078030000000     0.458840000000     0.019140000000     0.0519663  
H286     H      0.065030000000     0.473030000000     0.891120000000     0.0513658  
H287     H      0.966260000000     0.427260000000     0.958750000000     0.0411564  
H288     H      0.145280000000     0.441280000000     0.004500000000     0.0258404  
H289     H      0.066850000000     0.570700000000     0.699560000000     0.0515564  
H290     H      0.903330000000     0.463040000000     0.725560000000     0.0263056  
H291     H      0.083760000000     0.501800000000     0.692230000000     0.0346031  
H292     H      0.012800000000     0.457200000000     0.694640000000     0.0446867  
H293     H      0.951040000000     0.444800000000     0.709070000000     0.0437388  
H294     H      0.006240000000     0.566080000000     0.730950000000     0.0438775  
H295     H      0.039090000000     0.541520000000     0.624660000000     0.0293183  
H296     H      0.903330000000     0.431130000000     0.758260000000     0.0386654  
H297     H      0.003100000000     0.471830000000     0.653020000000     0.0504466  
H298     H      0.013680000000     0.540940000000     0.765880000000     0.0542434  
H299     H      0.068400000000     0.473990000000     0.653110000000     0.0364644  
H300     H      0.934750000000     0.533140000000     0.738460000000     0.0267186  
H301     H      0.024630000000     0.567800000000     0.675660000000     0.0444237  
H302     H      0.975410000000     0.456160000000     0.751210000000     0.0523864  
H303     H      0.958110000000     0.551310000000     0.780110000000     0.0402626  
H304     H      0.083480000000     0.584620000000     0.637570000000     0.0379649  
H305     H      0.267170000000     0.797250000000     0.003410000000     0.0437078  
H306     H      0.291370000000     0.723880000000     0.100830000000     0.0297742  
H307     H      0.330490000000     0.877160000000     0.070240000000     0.0265921  
H308     H      0.299150000000     0.823720000000     0.105950000000     0.043969   
H309     H      0.265590000000     0.764910000000     0.123600000000     0.0440954  
H310     H      0.228740000000     0.736890000000     0.013530000000     0.0440249  
H311     H      0.339090000000     0.844300000000     0.982300000000     0.0396657  
H312     H      0.251730000000     0.698930000000     0.631940000000     0.0409157  
H313     H      0.332530000000     0.806040000000     0.093930000000     0.0534817  
H314     H      0.195060000000     0.715890000000     0.548920000000     0.0522711  
H315     H      0.371210000000     0.873590000000     0.089530000000     0.0408763  
H316     H      0.266870000000     0.705090000000     0.030390000000     0.029572   
H317     H      0.304430000000     0.782450000000     0.006730000000     0.0520561  
H318     H      0.215850000000     0.731320000000     0.610800000000     0.0521855  
H319     H      0.214440000000     0.670970000000     0.025140000000     0.0419615  
H320     H      0.313030000000     0.861520000000     0.009020000000     0.0264873  
H321     H      0.681710000000     0.607530000000     0.729040000000     0.0437716  
H322     H      0.569100000000     0.534660000000     0.633160000000     0.030562   
H323     H      0.650060000000     0.684850000000     0.706390000000     0.025228   
H324     H      0.632980000000     0.647430000000     0.657120000000     0.0435981  
H325     H      0.618150000000     0.601370000000     0.620650000000     0.0438732  
H326     H      0.666720000000     0.555590000000     0.700140000000     0.0442164  
H327     H      0.651890000000     0.626520000000     0.779710000000     0.0396018  
H328     H      0.589550000000     0.539820000000     0.590090000000     0.0407962  
H329     H      0.586990000000     0.609240000000     0.675280000000     0.0538968  
H330     H      0.684310000000     0.563050000000     0.656340000000     0.0511334  
H331     H      0.596440000000     0.664320000000     0.704730000000     0.0392819  
H332     H      0.599050000000     0.506460000000     0.682660000000     0.0312483  
H333     H      0.628960000000     0.576080000000     0.738360000000     0.0545875  
H334     H      0.656020000000     0.589920000000     0.610000000000     0.0510576  
H335     H      0.636370000000     0.495210000000     0.667720000000     0.041403   
H336     H      0.681480000000     0.662240000000     0.747820000000     0.0253682  
H337     H      0.467360000000     0.496600000000     0.957140000000     0.04431    
H338     H      0.457070000000     0.354830000000     0.962100000000     0.0248975  
H339     H      0.559000000000     0.511710000000     0.888060000000     0.0301731  
H340     H      0.511770000000     0.444580000000     0.880390000000     0.0443099  
H341     H      0.483560000000     0.393940000000     0.913840000000     0.0438375  
H342     H      0.440900000000     0.441140000000     0.984000000000     0.0437995  
H343     H      0.494760000000     0.553690000000     0.920400000000     0.0417356  
H344     H      0.509000000000     0.367150000000     0.962740000000     0.0389118  
H345     H      0.472150000000     0.453050000000     0.867460000000     0.0515939  
H346     H      0.493420000000     0.466780000000     0.996200000000     0.0544539  
H347     H      0.537390000000     0.502790000000     0.845140000000     0.041196   
H348     H      0.431000000000     0.382380000000     0.003060000000     0.0251177  
H349     H      0.444840000000     0.485460000000     0.914850000000     0.051921   
H350     H      0.530480000000     0.426460000000     0.935030000000     0.0549081  
H351     H      0.462610000000     0.415290000000     0.036080000000     0.0391325  
H352     H      0.532600000000     0.542690000000     0.934350000000     0.0302017  
H353     H      0.507840000000     0.768500000000     0.838620000000     0.0436057  
H354     H      0.441180000000     0.737040000000     0.967370000000     0.0278684  
H355     H      0.591560000000     0.751770000000     0.876650000000     0.0264274  
H356     H      0.553770000000     0.742040000000     0.928130000000     0.0442813  
H357     H      0.502590000000     0.737200000000     0.959710000000     0.0444822  
H358     H      0.463560000000     0.773450000000     0.870160000000     0.0438571  
H359     H      0.520030000000     0.722450000000     0.801920000000     0.0390327  
H360     H      0.477390000000     0.769830000000     0.998080000000     0.0395013  
H361     H      0.512210000000     0.697180000000     0.913370000000     0.0540486  
H362     H      0.505430000000     0.815000000000     0.889180000000     0.0518502  
H363     H      0.574920000000     0.704030000000     0.891860000000     0.0403409  
H364     H      0.420280000000     0.762700000000     0.916470000000     0.0272646  
H365     H      0.474420000000     0.718240000000     0.845970000000     0.052261   
H366     H      0.532200000000     0.788560000000     0.956720000000     0.0521121  
H367     H      0.445290000000     0.813220000000     0.908720000000     0.0398507  
H368     H      0.562100000000     0.761930000000     0.822730000000     0.0260269  
H369     H      0.321130000000     0.532160000000     0.771230000000     0.043657   
H370     H      0.343930000000     0.598930000000     0.641820000000     0.0284789  
H371     H      0.386650000000     0.489610000000     0.732700000000     0.0260052  
H372     H      0.373440000000     0.514670000000     0.683280000000     0.0438564  
H373     H      0.354360000000     0.546480000000     0.649810000000     0.0440663  
H374     H      0.300370000000     0.565420000000     0.742560000000     0.0441473  
H375     H      0.380130000000     0.542850000000     0.808910000000     0.0381475  
H376     H      0.310540000000     0.561160000000     0.613140000000     0.0388026  
H377     H      0.408940000000     0.563720000000     0.694190000000     0.0525601  
H378     H      0.265460000000     0.525750000000     0.716400000000     0.0526919  
H379     H      0.435230000000     0.526390000000     0.718220000000     0.039289   
H380     H      0.313980000000     0.611140000000     0.697970000000     0.0285665  
H381     H      0.366480000000     0.577900000000     0.766270000000     0.0530993  
H382     H      0.301850000000     0.512390000000     0.654720000000     0.0514009  
H383     H      0.260710000000     0.582930000000     0.705050000000     0.0409937  
H384     H      0.354810000000     0.499330000000     0.784240000000     0.025181   
In1      In     0.522150000000     0.606030000000     0.307490000000     2.39923    
In2      In     0.192040000000     0.569520000000     0.100140000000     2.39556    
In3      In     0.473550000000     0.883770000000     0.513900000000     2.39325    
In4      In     0.903160000000     0.465800000000     0.375500000000     2.39518    
In5      In     0.588430000000     0.425370000000     0.563370000000     2.40372    
In6      In     0.579560000000     0.136850000000     0.237080000000     2.41184    
In7      In     0.522150000000     0.606020000000     0.807490000000     2.39905    
In8      In     0.192040000000     0.569510000000     0.600140000000     2.39554    
In9      In     0.473550000000     0.883770000000     0.013900000000     2.39336    
In10     In     0.903160000000     0.465800000000     0.875500000000     2.39538    
In11     In     0.588430000000     0.425370000000     0.063370000000     2.40363    
In12     In     0.579560000000     0.136850000000     0.737080000000     2.41203    
N1       N      0.555850000000     0.323550000000     0.110400000000    -0.175942   
N2       N      0.496230000000     0.148670000000     0.181500000000    -0.175068   
N3       N      0.874260000000     0.536210000000     0.428450000000    -0.176097   
N4       N      0.696260000000     0.470840000000     0.513220000000    -0.176067   
N5       N      0.678640000000     0.243000000000     0.238060000000    -0.176482   
N6       N      0.803600000000     0.360170000000     0.373690000000    -0.175804   
N7       N      0.568190000000     0.104950000000     0.338940000000    -0.175501   
N8       N      0.529550000000     0.992920000000     0.477100000000    -0.17648    
N9       N      0.571850000000     0.043450000000     0.189520000000    -0.174608   
N10      N      0.542390000000     0.894060000000     0.598200000000    -0.174347   
N11      N      0.001780000000     0.475490000000     0.425210000000    -0.175418   
N12      N      0.164300000000     0.498860000000     0.516440000000    -0.174872   
N13      N      0.930920000000     0.490510000000     0.272810000000    -0.176285   
N14      N      0.083770000000     0.532260000000     0.147340000000    -0.176619   
N15      N      0.236570000000     0.682060000000     0.078100000000    -0.174112   
N16      N      0.358750000000     0.857240000000     0.535600000000    -0.174456   
N17      N      0.609160000000     0.513150000000     0.128200000000    -0.174286   
N18      N      0.619080000000     0.641550000000     0.243660000000    -0.175548   
N19      N      0.491440000000     0.395010000000     0.500900000000    -0.175773   
N20      N      0.517660000000     0.531350000000     0.380950000000    -0.173917   
N21      N      0.462900000000     0.795060000000     0.454980000000    -0.176792   
N22      N      0.544970000000     0.708880000000     0.346270000000    -0.176211   
N23      N      0.283090000000     0.572230000000     0.157240000000    -0.176755   
N24      N      0.411730000000     0.539050000000     0.264100000000    -0.177336   
N25      N      0.555850000000     0.323550000000     0.610400000000    -0.175973   
N26      N      0.496230000000     0.148670000000     0.681500000000    -0.175073   
N27      N      0.874260000000     0.536210000000     0.928450000000    -0.176075   
N28      N      0.696260000000     0.470840000000     0.013220000000    -0.176092   
N29      N      0.678640000000     0.243000000000     0.738060000000    -0.176486   
N30      N      0.803600000000     0.360170000000     0.873690000000    -0.175851   
N31      N      0.568190000000     0.104950000000     0.838940000000    -0.175479   
N32      N      0.529550000000     0.992920000000     0.977100000000    -0.176486   
N33      N      0.571850000000     0.043450000000     0.689520000000    -0.174597   
N34      N      0.542390000000     0.894060000000     0.098200000000    -0.174321   
N35      N      0.001780000000     0.475490000000     0.925210000000    -0.17541    
N36      N      0.164300000000     0.498860000000     0.016440000000    -0.174906   
N37      N      0.930920000000     0.490510000000     0.772810000000    -0.176296   
N38      N      0.083770000000     0.532250000000     0.647340000000    -0.176641   
N39      N      0.236570000000     0.682050000000     0.578100000000    -0.17419    
N40      N      0.358750000000     0.857240000000     0.035600000000    -0.174452   
N41      N      0.609160000000     0.513150000000     0.628200000000    -0.174385   
N42      N      0.619080000000     0.641550000000     0.743660000000    -0.175536   
N43      N      0.491440000000     0.395010000000     0.000900000000    -0.17578    
N44      N      0.517660000000     0.531350000000     0.880950000000    -0.173888   
N45      N      0.462900000000     0.795060000000     0.954980000000    -0.176882   
N46      N      0.544970000000     0.708880000000     0.846270000000    -0.176175   
N47      N      0.283090000000     0.572230000000     0.657240000000    -0.176755   
N48      N      0.411730000000     0.539050000000     0.764100000000    -0.177288   
O1       O      0.480910000000     0.567780000000     0.263880000000    -0.506119   
O2       O      0.453640000000     0.578850000000     0.307120000000    -0.510476   
O3       O      0.556340000000     0.632710000000     0.256950000000    -0.500551   
O4       O      0.548470000000     0.653560000000     0.348200000000    -0.502776   
O5       O      0.509500000000     0.581490000000     0.362550000000    -0.495444   
O6       O      0.518050000000     0.660780000000     0.305100000000    -0.504168   
O7       O      0.584640000000     0.615370000000     0.294780000000    -0.498652   
O8       O      0.529840000000     0.555960000000     0.325080000000    -0.496511   
O9       O      0.223840000000     0.573240000000     0.151440000000    -0.504529   
O10      O      0.249610000000     0.565580000000     0.105320000000    -0.510618   
O11      O      0.140230000000     0.528140000000     0.134910000000    -0.497281   
O12      O      0.203280000000     0.618170000000     0.063020000000    -0.489499   
O13      O      0.159890000000     0.510550000000     0.074640000000    -0.503931   
O14      O      0.223850000000     0.632440000000     0.115360000000    -0.504819   
O15      O      0.135690000000     0.573630000000     0.111560000000    -0.508791   
O16      O      0.198620000000     0.557970000000     0.042810000000    -0.490322   
O17      O      0.463220000000     0.852060000000     0.461840000000    -0.50033    
O18      O      0.474290000000     0.827910000000     0.506720000000    -0.513998   
O19      O      0.478960000000     0.942380000000     0.507100000000    -0.511733   
O20      O      0.408350000000     0.862590000000     0.498150000000    -0.502813   
O21      O      0.534100000000     0.906270000000     0.541030000000    -0.502121   
O22      O      0.424390000000     0.877540000000     0.551370000000    -0.489194   
O23      O      0.522720000000     0.932970000000     0.482140000000    -0.498422   
O24      O      0.481250000000     0.870390000000     0.570320000000    -0.486423   
O25      O      0.876360000000     0.505290000000     0.378570000000    -0.496258   
O26      O      0.900520000000     0.495900000000     0.425030000000    -0.509329   
O27      O      0.933250000000     0.447360000000     0.416610000000    -0.497828   
O28      O      0.872240000000     0.400690000000     0.373400000000    -0.494474   
O29      O      0.930150000000     0.507990000000     0.330010000000    -0.495439   
O30      O      0.835080000000     0.425790000000     0.378230000000    -0.506332   
O31      O      0.971220000000     0.492980000000     0.382830000000    -0.508007   
O32      O      0.904570000000     0.448790000000     0.319020000000    -0.509849   
O33      O      0.629750000000     0.455430000000     0.516880000000    -0.503468   
O34      O      0.654690000000     0.441990000000     0.560390000000    -0.507937   
O35      O      0.551940000000     0.398670000000     0.513910000000    -0.500403   
O36      O      0.558730000000     0.382020000000     0.607630000000    -0.502268   
O37      O      0.589020000000     0.481010000000     0.575710000000    -0.50049    
O38      O      0.584780000000     0.367270000000     0.565860000000    -0.508475   
O39      O      0.527520000000     0.420270000000     0.551520000000    -0.499968   
O40      O      0.609540000000     0.457540000000     0.614990000000    -0.499407   
O41      O      0.549200000000     0.137270000000     0.186210000000    -0.510966   
O42      O      0.526770000000     0.148040000000     0.233180000000    -0.492275   
O43      O      0.602210000000     0.108600000000     0.198570000000    -0.494695   
O44      O      0.647380000000     0.177570000000     0.231430000000    -0.497189   
O45      O      0.544710000000     0.118860000000     0.288680000000    -0.495825   
O46      O      0.610310000000     0.201870000000     0.241310000000    -0.514116   
O47      O      0.549640000000     0.072710000000     0.228170000000    -0.512294   
O48      O      0.603080000000     0.125020000000     0.287200000000    -0.516214   
O49      O      0.480910000000     0.567780000000     0.763870000000    -0.505963   
O50      O      0.453640000000     0.578850000000     0.807120000000    -0.510402   
O51      O      0.556340000000     0.632710000000     0.756950000000    -0.500632   
O52      O      0.548470000000     0.653560000000     0.848200000000    -0.502724   
O53      O      0.509500000000     0.581490000000     0.862550000000    -0.495447   
O54      O      0.518050000000     0.660780000000     0.805100000000    -0.503953   
O55      O      0.584630000000     0.615370000000     0.794780000000    -0.498885   
O56      O      0.529840000000     0.555950000000     0.825080000000    -0.496449   
O57      O      0.223840000000     0.573240000000     0.651440000000    -0.504561   
O58      O      0.249610000000     0.565580000000     0.605320000000    -0.510711   
O59      O      0.140230000000     0.528140000000     0.634910000000    -0.497328   
O60      O      0.203280000000     0.618170000000     0.563020000000    -0.489466   
O61      O      0.159880000000     0.510550000000     0.574640000000    -0.503999   
O62      O      0.223850000000     0.632440000000     0.615360000000    -0.504618   
O63      O      0.135690000000     0.573630000000     0.611560000000    -0.508701   
O64      O      0.198620000000     0.557970000000     0.542810000000    -0.490327   
O65      O      0.463220000000     0.852060000000     0.961840000000    -0.500238   
O66      O      0.474290000000     0.827920000000     0.006720000000    -0.514192   
O67      O      0.478960000000     0.942380000000     0.007100000000    -0.511786   
O68      O      0.408350000000     0.862590000000     0.998150000000    -0.502787   
O69      O      0.534100000000     0.906270000000     0.041030000000    -0.502122   
O70      O      0.424390000000     0.877540000000     0.051370000000    -0.489216   
O71      O      0.522720000000     0.932970000000     0.982140000000    -0.498428   
O72      O      0.481250000000     0.870380000000     0.070320000000    -0.486363   
O73      O      0.876360000000     0.505290000000     0.878570000000    -0.496274   
O74      O      0.900520000000     0.495900000000     0.925030000000    -0.509344   
O75      O      0.933250000000     0.447360000000     0.916610000000    -0.497831   
O76      O      0.872240000000     0.400700000000     0.873400000000    -0.494713   
O77      O      0.930150000000     0.507990000000     0.830010000000    -0.495528   
O78      O      0.835080000000     0.425790000000     0.878230000000    -0.506388   
O79      O      0.971220000000     0.492980000000     0.882830000000    -0.508019   
O80      O      0.904570000000     0.448790000000     0.819020000000    -0.509762   
O81      O      0.629750000000     0.455430000000     0.016880000000    -0.503469   
O82      O      0.654690000000     0.441990000000     0.060390000000    -0.507919   
O83      O      0.551940000000     0.398670000000     0.013910000000    -0.500418   
O84      O      0.558730000000     0.382020000000     0.107630000000    -0.502213   
O85      O      0.589020000000     0.481010000000     0.075710000000    -0.500408   
O86      O      0.584790000000     0.367270000000     0.065860000000    -0.508319   
O87      O      0.527520000000     0.420270000000     0.051520000000    -0.499968   
O88      O      0.609540000000     0.457530000000     0.114990000000    -0.499389   
O89      O      0.549200000000     0.137270000000     0.686210000000    -0.510988   
O90      O      0.526780000000     0.148040000000     0.733180000000    -0.49244    
O91      O      0.602210000000     0.108600000000     0.698570000000    -0.494714   
O92      O      0.647380000000     0.177570000000     0.731430000000    -0.497208   
O93      O      0.544710000000     0.118860000000     0.788680000000    -0.495824   
O94      O      0.610310000000     0.201870000000     0.741310000000    -0.514119   
O95      O      0.549640000000     0.072710000000     0.728170000000    -0.512308   
O96      O      0.603080000000     0.125020000000     0.787200000000    -0.516231   


