data_structure

_audit_creation_method RASPA-1.0
_audit_creation_date 2023-5-25
_audit_author_name 'Poobodin Mano'

_cell_length_a    39.5916
_cell_length_b    46.1837
_cell_length_c    45.5291
_cell_angle_alpha 90
_cell_angle_beta  90
_cell_angle_gamma 90
_cell_volume      83249.3

_symmetry_cell_setting          triclinic
_symmetry_space_group_name_Hall 'P 1'
_symmetry_space_group_name_H-M  'P 1'
_symmetry_Int_Tables_number     1

_symmetry_equiv_pos_as_xyz 'x,y,z'

loop_
_atom_site_label
_atom_site_type_symbol
_atom_site_fract_x
_atom_site_fract_y
_atom_site_fract_z
_atom_site_charge
C1       C      0.933110000000     0.406010000000     0.844950000000     0.408978   
C2       C      0.999680000000     0.390040000000     0.912390000000     0.40723    
C3       C      0.924310000000     0.320070000000     0.899170000000     0.411571   
C4       C      0.994400000000     0.325560000000     0.833850000000     0.412261   
C5       C      0.169390000000     0.585430000000     0.090900000000     0.403223   
C6       C      0.159420000000     0.644000000000     0.174600000000     0.408035   
C7       C      0.231990000000     0.579200000000     0.171330000000     0.40949    
C8       C      0.231240000000     0.655290000000     0.102340000000     0.40603    
C9       C      0.389640000000     0.897980000000     0.832690000000     0.4017     
C10      C      0.391850000000     0.809450000000     0.884380000000     0.408502   
C11      C      0.457890000000     0.830660000000     0.813750000000     0.405877   
C12      C      0.456520000000     0.880000000000     0.904780000000     0.406265   
C13      C      0.713480000000     0.148760000000     0.070830000000     0.403795   
C14      C      0.644520000000     0.079980000000     0.058030000000     0.41181    
C15      C      0.706510000000     0.069140000000     0.134770000000     0.412907   
C16      C      0.641810000000     0.144290000000     0.138450000000     0.402577   
C17      C      0.431370000000     0.388750000000     0.329040000000     0.405147   
C18      C      0.494420000000     0.318180000000     0.350260000000     0.409596   
C19      C      0.491780000000     0.399030000000     0.410780000000     0.414132   
C20      C      0.418020000000     0.339060000000     0.417710000000     0.415788   
C21      C      0.672370000000     0.590620000000     0.585630000000     0.405748   
C22      C      0.669590000000     0.639680000000     0.676770000000     0.409793   
C23      C      0.740360000000     0.573870000000     0.657280000000     0.402331   
C24      C      0.734330000000     0.662220000000     0.605400000000     0.411759   
C25      C      0.948310000000     0.836240000000     0.311610000000     0.40444    
C26      C      0.950380000000     0.881720000000     0.405400000000     0.410551   
C27      C      0.881900000000     0.903650000000     0.336330000000     0.403316   
C28      C      0.888230000000     0.811890000000     0.384280000000     0.40445    
C29      C      0.162300000000     0.150730000000     0.632670000000     0.405073   
C30      C      0.210760000000     0.063640000000     0.633300000000     0.406849   
C31      C      0.142450000000     0.074360000000     0.566370000000     0.405554   
C32      C      0.225950000000     0.135980000000     0.562660000000     0.403174   
C33      C      0.967450000000     0.935000000000     0.462290000000    -0.0327003  
C34      C      0.113730000000     0.016960000000     0.515760000000    -0.0312181  
C35      C      0.084000000000     0.061430000000     0.553220000000    -0.00492508 
C36      C      0.133680000000     0.044550000000     0.522260000000    -0.00434211 
C37      C      0.055360000000     0.972960000000     0.519720000000    -0.0553532  
C38      C      0.023580000000     0.979700000000     0.465270000000    -0.0556789  
C39      C      0.057740000000     0.999550000000     0.504720000000     0.0622893  
C40      C      0.066100000000     0.033180000000     0.545100000000    -0.0309856  
C41      C      0.020970000000     0.953170000000     0.480350000000     0.0629663  
C42      C      0.020550000000     0.917260000000     0.441810000000    -0.0752742  
C43      C      0.036960000000     0.950050000000     0.507610000000    -0.0516962  
C44      C      0.004080000000     0.888820000000     0.432090000000     0.172154   
C45      C      0.949010000000     0.907340000000     0.453060000000     0.00320771 
C46      C      0.041710000000     0.002670000000     0.477490000000    -0.0529151  
C47      C      0.746310000000     0.711170000000     0.544810000000    -0.0322182  
C48      C      0.878230000000     0.761920000000     0.444010000000    -0.0309212  
C49      C      0.837100000000     0.783060000000     0.395420000000    -0.00540722 
C50      C      0.894040000000     0.767190000000     0.413810000000    -0.00515593 
C51      C      0.824210000000     0.764900000000     0.492060000000    -0.0555762  
C52      C      0.801060000000     0.707950000000     0.497680000000    -0.0552796  
C53      C      0.827390000000     0.745570000000     0.468270000000     0.0623194  
C54      C      0.822770000000     0.777290000000     0.426090000000    -0.0307932  
C55      C      0.797710000000     0.727320000000     0.521410000000     0.0621241  
C56      C      0.801180000000     0.695760000000     0.563830000000    -0.0790132  
C57      C      0.809460000000     0.755750000000     0.518360000000    -0.0521051  
C58      C      0.786220000000     0.690190000000     0.594470000000     0.170687   
C59      C      0.729700000000     0.706180000000     0.574690000000     0.00284447 
C60      C      0.815770000000     0.717100000000     0.471370000000    -0.0535109  
C61      C      0.393500000000     0.285210000000     0.471170000000    -0.0322355  
C62      C      0.249800000000     0.193260000000     0.511280000000    -0.0308731  
C63      C      0.283560000000     0.149920000000     0.547470000000    -0.00563407 
C64      C      0.232750000000     0.164100000000     0.516970000000    -0.00516544 
C65      C      0.302780000000     0.241530000000     0.517980000000    -0.0555987  
C66      C      0.339400000000     0.238910000000     0.465500000000    -0.0553705  
C67      C      0.303970000000     0.215470000000     0.501940000000     0.0623439  
C68      C      0.298840000000     0.179550000000     0.540500000000    -0.0307618  
C69      C      0.338680000000     0.264850000000     0.481780000000     0.0624219  
C70      C      0.343630000000     0.302080000000     0.444590000000    -0.0793652  
C71      C      0.320130000000     0.265940000000     0.507940000000    -0.0522302  
C72      C      0.360560000000     0.331220000000     0.437630000000     0.171403   
C73      C      0.412000000000     0.313620000000     0.465150000000     0.00344523 
C74      C      0.322220000000     0.214460000000     0.475630000000    -0.0530942  
C75      C      0.511110000000     0.465440000000     0.453890000000    -0.0329626  
C76      C      0.652390000000     0.533270000000     0.533000000000    -0.0309105  
C77      C      0.622260000000     0.587190000000     0.553540000000    -0.00514336 
C78      C      0.675070000000     0.558430000000     0.542420000000    -0.00520116 
C79      C      0.586710000000     0.498940000000     0.525030000000    -0.0554631  
C80      C      0.574980000000     0.500910000000     0.464460000000    -0.0556913  
C81      C      0.600100000000     0.521870000000     0.508270000000     0.0620762  
C82      C      0.601490000000     0.561020000000     0.543660000000    -0.0309046  
C83      C      0.561470000000     0.478080000000     0.481270000000     0.062614   
C84      C      0.562330000000     0.437330000000     0.447900000000    -0.0797058  
C85      C      0.567520000000     0.477320000000     0.511560000000    -0.0521133  
C86      C      0.542690000000     0.409910000000     0.439600000000     0.172104   
C87      C      0.488780000000     0.439710000000     0.445490000000     0.00377904 
C88      C      0.594060000000     0.522620000000     0.477960000000    -0.0532344  
C89      C      0.720560000000     0.021940000000     0.198830000000    -0.0326188  
C90      C      0.861360000000     0.957050000000     0.280610000000    -0.030745   
C91      C      0.828040000000     0.930270000000     0.330840000000    -0.00584571 
C92      C      0.881710000000     0.949320000000     0.308070000000    -0.00556441 
C93      C      0.799840000000     0.958200000000     0.239340000000    -0.0555668  
C94      C      0.779690000000     0.016230000000     0.241130000000    -0.0555043  
C95      C      0.807390000000     0.975160000000     0.264200000000     0.0619778  
C96      C      0.809360000000     0.938840000000     0.302710000000    -0.030726   
C97      C      0.771880000000     0.999190000000     0.216390000000     0.062108   
C98      C      0.774460000000     0.032850000000     0.175760000000    -0.0795578  
C99      C      0.782120000000     0.970170000000     0.215740000000    -0.0522828  
C100     C      0.757460000000     0.040670000000     0.146520000000     0.171332   
C101     C      0.701160000000     0.029550000000     0.170810000000     0.002792   
C102     C      0.797200000000     0.004190000000     0.264830000000    -0.0533572  
C103     C      0.555560000000     0.286430000000     0.299880000000    -0.0326278  
C104     C      0.579530000000     0.167650000000     0.194320000000    -0.0309973  
C105     C      0.638070000000     0.191260000000     0.163620000000    -0.00531585 
C106     C      0.588570000000     0.156180000000     0.163760000000    -0.00497308 
C107     C      0.555210000000     0.235100000000     0.220490000000    -0.0532533  
C108     C      0.575840000000     0.217240000000     0.276370000000    -0.0518188  
C109     C      0.577370000000     0.211640000000     0.223260000000     0.0621958  
C110     C      0.626920000000     0.201050000000     0.194150000000    -0.0306179  
C111     C      0.554120000000     0.241020000000     0.273570000000     0.0626853  
C112     C      0.506940000000     0.254320000000     0.304610000000    -0.0752057  
C113     C      0.543550000000     0.249690000000     0.245370000000    -0.0555868  
C114     C      0.497880000000     0.266990000000     0.334720000000     0.171932   
C115     C      0.548260000000     0.300370000000     0.329670000000     0.00288009 
C116     C      0.587390000000     0.202570000000     0.251480000000    -0.0555579  
C117     C      0.224370000000     0.019580000000     0.699460000000    -0.032882   
C118     C      0.366340000000     0.947100000000     0.773130000000    -0.0309115  
C119     C      0.337490000000     0.927070000000     0.828430000000    -0.00557756 
C120     C      0.389530000000     0.939830000000     0.798970000000    -0.00535386 
C121     C      0.299690000000     0.950750000000     0.738340000000    -0.0553699  
C122     C      0.287020000000     0.010330000000     0.737000000000    -0.0554145  
C123     C      0.312660000000     0.968640000000     0.760720000000     0.0622362  
C124     C      0.316150000000     0.934990000000     0.801580000000    -0.0307326  
C125     C      0.273830000000     0.992410000000     0.714750000000     0.0627869  
C126     C      0.276320000000     0.021830000000     0.670940000000    -0.0751226  
C127     C      0.280330000000     0.962620000000     0.715670000000    -0.0515943  
C128     C      0.257100000000     0.029180000000     0.642730000000     0.171841   
C129     C      0.202980000000     0.027310000000     0.672550000000     0.00331478 
C130     C      0.306130000000     0.998430000000     0.759820000000    -0.0532127  
C131     C      0.594000000000     0.668180000000     0.709930000000    -0.0323923  
C132     C      0.532780000000     0.801260000000     0.780200000000    -0.0309362  
C133     C      0.459950000000     0.795690000000     0.772580000000    -0.00535835 
C134     C      0.509800000000     0.827670000000     0.783660000000    -0.00497047 
C135     C      0.551330000000     0.737250000000     0.774000000000    -0.0552274  
C136     C      0.574560000000     0.732000000000     0.716220000000    -0.0553017  
C137     C      0.540420000000     0.757100000000     0.752500000000     0.0624223  
C138     C      0.484360000000     0.770160000000     0.769340000000    -0.0309388  
C139     C      0.585540000000     0.712180000000     0.737730000000     0.0629815  
C140     C      0.641860000000     0.699740000000     0.721170000000    -0.0745487  
C141     C      0.573710000000     0.715010000000     0.766570000000    -0.0515192  
C142     C      0.666850000000     0.674550000000     0.718010000000     0.171238   
C143     C      0.617360000000     0.642030000000     0.706480000000     0.0031439  
C144     C      0.552200000000     0.754230000000     0.723650000000    -0.0528456  
C145     C      0.573300000000     0.044520000000     0.022200000000    -0.0327321  
C146     C      0.528600000000     0.912320000000     0.941290000000    -0.0308169  
C147     C      0.455290000000     0.913310000000     0.947270000000    -0.00549467 
C148     C      0.507910000000     0.884970000000     0.935250000000    -0.0053955  
C149     C      0.542160000000     0.976420000000     0.952670000000    -0.0552528  
C150     C      0.560890000000     0.979820000000     0.011810000000    -0.0555775  
C151     C      0.531710000000     0.954700000000     0.972400000000     0.0622537  
C152     C      0.477580000000     0.939800000000     0.952870000000    -0.0307638  
C153     C      0.571420000000     0.001490000000     0.992060000000     0.0631646  
C154     C      0.624730000000     0.016940000000     0.013000000000    -0.0751007  
C155     C      0.561880000000     0.999560000000     0.962510000000    -0.0518575  
C156     C      0.646970000000     0.043600000000     0.018270000000     0.171865   
C157     C      0.593500000000     0.072200000000     0.027840000000     0.00337575 
C158     C      0.541230000000     0.956640000000     0.001950000000    -0.0529623  
C159     C      0.081560000000     0.674250000000     0.204410000000    -0.0323592  
C160     C      0.021200000000     0.807290000000     0.275360000000    -0.0307651  
C161     C      0.948110000000     0.802620000000     0.269250000000    -0.00548264 
C162     C      0.998690000000     0.833880000000     0.279550000000    -0.00527242 
C163     C      0.038640000000     0.743250000000     0.268820000000    -0.0552862  
C164     C      0.060730000000     0.737890000000     0.210720000000    -0.0555624  
C165     C      0.027400000000     0.763120000000     0.247480000000     0.0623167  
C166     C      0.971950000000     0.776800000000     0.265260000000    -0.0308628  
C167     C      0.072240000000     0.718210000000     0.232140000000     0.0630119  
C168     C      0.128580000000     0.706690000000     0.215100000000    -0.074964   
C169     C      0.060890000000     0.721030000000     0.261120000000    -0.0516069  
C170     C      0.154240000000     0.681990000000     0.212540000000     0.171571   
C171     C      0.105390000000     0.648330000000     0.201370000000     0.00275687 
C172     C      0.038520000000     0.760150000000     0.218440000000    -0.0531027  
C173     C      0.323930000000     0.776290000000     0.925430000000    -0.0323771  
C174     C      0.297900000000     0.683330000000     0.054440000000    -0.0308004  
C175     C      0.229630000000     0.699580000000     0.071980000000    -0.00492602 
C176     C      0.285260000000     0.676020000000     0.085300000000    -0.00522411 
C177     C      0.295790000000     0.703260000000     0.990810000000    -0.0555675  
C178     C      0.325280000000     0.758300000000     0.990490000000    -0.0553516  
C179     C      0.295740000000     0.720090000000     0.016620000000     0.0623558  
C180     C      0.244300000000     0.705930000000     0.041550000000    -0.0309946  
C181     C      0.325910000000     0.741270000000     0.964820000000     0.062641   
C182     C      0.378090000000     0.756910000000     0.942020000000    -0.0747341  
C183     C      0.310880000000     0.713810000000     0.965200000000    -0.0516618  
C184     C      0.394660000000     0.763580000000     0.912370000000     0.171209   
C185     C      0.338620000000     0.783540000000     0.895220000000     0.00258494 
C186     C      0.310400000000     0.747670000000     0.016140000000    -0.0532919  
C187     C      0.303810000000     0.547320000000     0.211630000000    -0.0328039  
C188     C      0.362550000000     0.413890000000     0.282850000000    -0.0308191  
C189     C      0.433190000000     0.428710000000     0.292930000000    -0.00512084 
C190     C      0.388270000000     0.390130000000     0.289780000000    -0.00526732 
C191     C      0.334650000000     0.475210000000     0.276640000000    -0.0553084  
C192     C      0.330250000000     0.485060000000     0.216130000000    -0.055677   
C193     C      0.355380000000     0.459390000000     0.257280000000     0.0621244  
C194     C      0.406040000000     0.451260000000     0.285900000000    -0.0309631  
C195     C      0.309530000000     0.500860000000     0.235500000000     0.0630984  
C196     C      0.260110000000     0.510870000000     0.205620000000    -0.0750852  
C197     C      0.311950000000     0.495730000000     0.265740000000    -0.0515487  
C198     C      0.232900000000     0.533840000000     0.199930000000     0.171856   
C199     C      0.278780000000     0.571940000000     0.206170000000     0.00318017 
C200     C      0.352920000000     0.464490000000     0.227020000000    -0.0530222  
C201     C      0.062510000000     0.282120000000     0.799070000000    -0.032855   
C202     C      0.100410000000     0.200620000000     0.664710000000    -0.0307428  
C203     C      0.170710000000     0.184260000000     0.674270000000    -0.00503936 
C204     C      0.122210000000     0.191150000000     0.638720000000    -0.00519691 
C205     C      0.080640000000     0.211120000000     0.728660000000    -0.0554719  
C206     C      0.083640000000     0.271290000000     0.735330000000    -0.055637   
C207     C      0.101710000000     0.227570000000     0.710150000000     0.0620686  
C208     C      0.147080000000     0.194110000000     0.698930000000    -0.0309897  
C209     C      0.062500000000     0.254830000000     0.753760000000     0.0626002  
C210     C      0.016680000000     0.288070000000     0.764290000000    -0.0794153  
C211     C      0.061250000000     0.224730000000     0.750260000000    -0.0521121  
C212     C      0.991630000000     0.296770000000     0.788460000000     0.171681   
C213     C      0.040040000000     0.290620000000     0.824970000000     0.00329913 
C214     C      0.103030000000     0.257680000000     0.713710000000    -0.0531464  
C215     C      0.847980000000     0.280940000000     0.923110000000    -0.0328173  
C216     C      0.788740000000     0.187500000000     0.043190000000    -0.0311422  
C217     C      0.716080000000     0.186370000000     0.032560000000    -0.00480543 
C218     C      0.764840000000     0.178660000000     0.068000000000    -0.00452565 
C219     C      0.811590000000     0.204170000000     0.981340000000    -0.0551971  
C220     C      0.823060000000     0.263870000000     0.984340000000    -0.055518   
C221     C      0.794700000000     0.220880000000     0.002650000000     0.0623966  
C222     C      0.742120000000     0.194870000000     0.009300000000    -0.0309605  
C223     C      0.840080000000     0.247150000000     0.963120000000     0.0632053  
C224     C      0.893400000000     0.272270000000     0.957980000000    -0.0752553  
C225     C      0.834080000000     0.217290000000     0.961790000000    -0.0514734  
C226     C      0.920450000000     0.280620000000     0.935480000000     0.172257   
C227     C      0.872940000000     0.289910000000     0.899120000000     0.00340788 
C228     C      0.800580000000     0.250750000000     0.003890000000    -0.0529609  
C229     C      0.863220000000     0.446800000000     0.812940000000    -0.0326747  
C230     C      0.815430000000     0.538380000000     0.687790000000    -0.0308065  
C231     C      0.742250000000     0.531470000000     0.690260000000    -0.00555564 
C232     C      0.793810000000     0.546570000000     0.661190000000    -0.0055212  
C233     C      0.832430000000     0.520700000000     0.750540000000    -0.0552976  
C234     C      0.849540000000     0.461970000000     0.748240000000    -0.0554612  
C235     C      0.820480000000     0.503440000000     0.727240000000     0.0622108  
C236     C      0.765800000000     0.523970000000     0.715810000000    -0.0307551  
C237     C      0.861690000000     0.479280000000     0.771420000000     0.0628535  
C238     C      0.914110000000     0.454930000000     0.784000000000    -0.0747118  
C239     C      0.852930000000     0.508650000000     0.772340000000    -0.0515686  
C240     C      0.936970000000     0.446840000000     0.809950000000     0.17137    
C241     C      0.883980000000     0.438560000000     0.840000000000     0.00323168 
C242     C      0.829210000000     0.474060000000     0.726340000000    -0.0529574  
C243     C      0.020010000000     0.444310000000     0.968930000000    -0.0331952  
C244     C      0.158240000000     0.527820000000     0.035820000000    -0.0310288  
C245     C      0.118160000000     0.573820000000     0.062510000000    -0.00511209 
C246     C      0.175570000000     0.555650000000     0.046190000000    -0.00497933 
C247     C      0.103500000000     0.482710000000     0.027220000000    -0.0553223  
C248     C      0.076680000000     0.490500000000     0.970920000000    -0.0554226  
C249     C      0.107010000000     0.509660000000     0.013060000000     0.0622951  
C250     C      0.103210000000     0.545160000000     0.051870000000    -0.030717   
C251     C      0.073760000000     0.463390000000     0.984860000000     0.0630049  
C252     C      0.071280000000     0.431260000000     0.942680000000    -0.0752552  
C253     C      0.087190000000     0.459780000000     0.013080000000    -0.0515033  
C254     C      0.055890000000     0.402720000000     0.931920000000     0.172213   
C255     C      0.002330000000     0.416380000000     0.959420000000     0.00354411 
C256     C      0.093360000000     0.513330000000     0.984920000000    -0.05296    
H1       H      0.043660000000     0.022890000000     0.465570000000     0.0461471  
H2       H      0.955230000000     0.943590000000     0.482510000000     0.0379026  
H3       H      0.047680000000     0.913100000000     0.446730000000     0.0598514  
H4       H      0.074190000000     0.079030000000     0.538900000000     0.0397462  
H5       H      0.948030000000     0.892450000000     0.472230000000     0.0448339  
H6       H      0.121560000000     0.008780000000     0.493790000000     0.0371561  
H7       H      0.038370000000     0.037180000000     0.544930000000     0.036939   
H8       H      0.160880000000     0.038860000000     0.524300000000     0.0449033  
H9       H      0.016190000000     0.882330000000     0.410980000000     0.0104634  
H10      H      0.011910000000     0.982570000000     0.443980000000     0.0420269  
H11      H      0.922600000000     0.912900000000     0.446990000000     0.0426698  
H12      H      0.067930000000     0.969830000000     0.540580000000     0.0431299  
H13      H      0.964650000000     0.951410000000     0.444550000000     0.0385085  
H14      H      0.077550000000     0.067080000000     0.576300000000     0.0460056  
H15      H      0.120100000000     0.000160000000     0.532420000000     0.0398187  
H16      H      0.071630000000     0.016620000000     0.562200000000     0.0391261  
H17      H      0.035470000000     0.929670000000     0.519310000000     0.0509571  
H18      H      0.019290000000     0.933100000000     0.423400000000     0.0482217  
H19      H      0.131030000000     0.059560000000     0.503300000000     0.0397884  
H20      H      0.003730000000     0.848740000000     0.444450000000     0.150839   
H21      H      0.818090000000     0.702000000000     0.453290000000     0.0458547  
H22      H      0.732730000000     0.729080000000     0.533490000000     0.0377099  
H23      H      0.828150000000     0.702180000000     0.566250000000     0.0519008  
H24      H      0.832740000000     0.763540000000     0.381620000000     0.0382935  
H25      H      0.729070000000     0.727140000000     0.586710000000     0.0490142  
H26      H      0.892140000000     0.743920000000     0.454880000000     0.0370034  
H27      H      0.795900000000     0.770570000000     0.423780000000     0.0367996  
H28      H      0.920680000000     0.774250000000     0.416740000000     0.0453193  
H29      H      0.799250000000     0.670990000000     0.604090000000     0.00989692 
H30      H      0.792190000000     0.685850000000     0.499450000000     0.0416766  
H31      H      0.703160000000     0.699100000000     0.571250000000     0.0440204  
H32      H      0.833040000000     0.787000000000     0.490270000000     0.0430701  
H33      H      0.743600000000     0.691190000000     0.531320000000     0.0385805  
H34      H      0.823210000000     0.801440000000     0.385300000000     0.0473061  
H35      H      0.881240000000     0.781780000000     0.457620000000     0.0403462  
H36      H      0.823580000000     0.797730000000     0.439030000000     0.0402613  
H37      H      0.807050000000     0.770880000000     0.536410000000     0.0494377  
H38      H      0.800340000000     0.675240000000     0.551000000000     0.0479579  
H39      H      0.894220000000     0.746380000000     0.401530000000     0.0377544  
H40      H      0.815370000000     0.713340000000     0.619530000000     0.141912   
H41      H      0.323170000000     0.194610000000     0.462990000000     0.0465174  
H42      H      0.402590000000     0.276400000000     0.492520000000     0.0387682  
H43      H      0.315840000000     0.305400000000     0.446190000000     0.0517565  
H44      H      0.294360000000     0.133730000000     0.532020000000     0.03987    
H45      H      0.408710000000     0.328060000000     0.484470000000     0.0501476  
H46      H      0.241440000000     0.201330000000     0.489410000000     0.0365808  
H47      H      0.326840000000     0.177410000000     0.540250000000     0.0371797  
H48      H      0.204990000000     0.167500000000     0.518420000000     0.0453665  
H49      H      0.352350000000     0.338100000000     0.415250000000     0.00915127 
H50      H      0.353360000000     0.237530000000     0.445120000000     0.0427084  
H51      H      0.439450000000     0.309100000000     0.462780000000     0.046791   
H52      H      0.288590000000     0.242950000000     0.538240000000     0.0424065  
H53      H      0.399980000000     0.269420000000     0.453570000000     0.0404021  
H54      H      0.291050000000     0.143540000000     0.570100000000     0.046918   
H55      H      0.241490000000     0.209080000000     0.528270000000     0.0389512  
H56      H      0.291800000000     0.195020000000     0.558220000000     0.0389649  
H57      H      0.319240000000     0.285780000000     0.520610000000     0.0493635  
H58      H      0.348490000000     0.286810000000     0.426130000000     0.0490038  
H59      H      0.237720000000     0.149630000000     0.497940000000     0.0393986  
H60      H      0.327720000000     0.358920000000     0.452340000000     0.14154    
H61      H      0.604340000000     0.540040000000     0.464780000000     0.0456925  
H62      H      0.496660000000     0.479600000000     0.469170000000     0.038447   
H63      H      0.586580000000     0.430890000000     0.458450000000     0.0521477  
H64      H      0.624100000000     0.602660000000     0.534900000000     0.0383506  
H65      H      0.478030000000     0.430170000000     0.465880000000     0.0483915  
H66      H      0.665850000000     0.520620000000     0.515780000000     0.036277   
H67      H      0.577210000000     0.568950000000     0.534320000000     0.0369329  
H68      H      0.698220000000     0.549520000000     0.552890000000     0.0441766  
H69      H      0.556770000000     0.398870000000     0.421530000000     0.00851288 
H70      H      0.570890000000     0.501860000000     0.440980000000     0.0418699  
H71      H      0.467290000000     0.447760000000     0.432020000000     0.0441896  
H72      H      0.591180000000     0.497730000000     0.548440000000     0.0428036  
H73      H      0.517060000000     0.478210000000     0.433790000000     0.0383524  
H74      H      0.608700000000     0.598270000000     0.571740000000     0.0467362  
H75      H      0.647990000000     0.518800000000     0.552200000000     0.0392951  
H76      H      0.595700000000     0.547340000000     0.563160000000     0.0397583  
H77      H      0.557450000000     0.459790000000     0.524710000000     0.0502678  
H78      H      0.568550000000     0.449680000000     0.427590000000     0.0478773  
H79      H      0.682930000000     0.570580000000     0.522470000000     0.0373212  
H80      H      0.562380000000     0.380680000000     0.465130000000     0.142288   
H81      H      0.803100000000     0.017560000000     0.283690000000     0.0457067  
H82      H      0.706040000000     0.005160000000     0.211020000000     0.0376384  
H83      H      0.800280000000     0.024410000000     0.171190000000     0.0518102  
H84      H      0.824890000000     0.947920000000     0.347220000000     0.0384078  
H85      H      0.695030000000     0.009150000000     0.158990000000     0.0471687  
H86      H      0.873340000000     0.976220000000     0.270040000000     0.0362839  
H87      H      0.782900000000     0.944610000000     0.308540000000     0.036782   
H88      H      0.907640000000     0.942870000000     0.301340000000     0.0449232  
H89      H      0.771380000000     0.059420000000     0.136890000000     0.00871646 
H90      H      0.772420000000     0.038800000000     0.242060000000     0.0415633  
H91      H      0.676890000000     0.040000000000     0.177030000000     0.0428543  
H92      H      0.807790000000     0.935810000000     0.238100000000     0.0425083  
H93      H      0.722330000000     0.041590000000     0.212920000000     0.0377014  
H94      H      0.816270000000     0.910380000000     0.340020000000     0.046888   
H95      H      0.862400000000     0.938620000000     0.264860000000     0.0393799  
H96      H      0.808710000000     0.919860000000     0.287650000000     0.0394066  
H97      H      0.776540000000     0.956890000000     0.196750000000     0.0495283  
H98      H      0.777150000000     0.052790000000     0.189320000000     0.0476483  
H99      H      0.883820000000     0.968960000000     0.322080000000     0.0376298  
H100     H      0.782180000000     0.017090000000     0.118430000000     0.142067   
H101     H      0.604440000000     0.184450000000     0.254210000000     0.0424271  
H102     H      0.583300000000     0.287160000000     0.295970000000     0.0377854  
H103     H      0.498600000000     0.231310000000     0.303870000000     0.0593538  
H104     H      0.628770000000     0.207210000000     0.147210000000     0.0381783  
H105     H      0.564420000000     0.289790000000     0.346510000000     0.0463109  
H106     H      0.551710000000     0.165800000000     0.197310000000     0.0368699  
H107     H      0.634480000000     0.224090000000     0.197090000000     0.0362704  
H108     H      0.583250000000     0.132540000000     0.163030000000     0.0457349  
H109     H      0.469770000000     0.267350000000     0.336300000000     0.00793158 
H110     H      0.584090000000     0.210280000000     0.297930000000     0.050318   
H111     H      0.555440000000     0.323630000000     0.328710000000     0.0444696  
H112     H      0.547290000000     0.242290000000     0.198920000000     0.0459244  
H113     H      0.542910000000     0.299330000000     0.282390000000     0.0380771  
H114     H      0.666140000000     0.191440000000     0.162740000000     0.0448135  
H115     H      0.592050000000     0.153980000000     0.211280000000     0.0389927  
H116     H      0.640290000000     0.187860000000     0.211010000000     0.03855    
H117     H      0.526660000000     0.267910000000     0.242600000000     0.0415671  
H118     H      0.492900000000     0.266390000000     0.287300000000     0.0469033  
H119     H      0.571970000000     0.166870000000     0.147310000000     0.0396436  
H120     H      0.500380000000     0.255250000000     0.375470000000     0.150548   
H121     H      0.316230000000     0.012490000000     0.776710000000     0.0460878  
H122     H      0.208970000000     0.005730000000     0.714310000000     0.0380481  
H123     H      0.299800000000     0.009900000000     0.664980000000     0.0597296  
H124     H      0.338040000000     0.945970000000     0.843560000000     0.0388069  
H125     H      0.192360000000     0.007010000000     0.663210000000     0.0443398  
H126     H      0.378670000000     0.964280000000     0.759740000000     0.036849   
H127     H      0.291280000000     0.943240000000     0.809330000000     0.036943   
H128     H      0.413420000000     0.930490000000     0.790300000000     0.0451474  
H129     H      0.273060000000     0.044670000000     0.630060000000     0.0107535  
H130     H      0.282840000000     0.033480000000     0.736580000000     0.0421354  
H131     H      0.181450000000     0.041070000000     0.679690000000     0.0430959  
H132     H      0.304740000000     0.927730000000     0.738260000000     0.043062   
H133     H      0.230900000000     0.039850000000     0.711420000000     0.0388232  
H134     H      0.325160000000     0.908820000000     0.840210000000     0.0473917  
H135     H      0.363220000000     0.927530000000     0.759090000000     0.0397834  
H136     H      0.311680000000     0.915090000000     0.788340000000     0.0396743  
H137     H      0.270690000000     0.948620000000     0.698520000000     0.0510284  
H138     H      0.283860000000     0.042280000000     0.682150000000     0.0484176  
H139     H      0.395910000000     0.960250000000     0.810680000000     0.0382364  
H140     H      0.245160000000     0.009970000000     0.606400000000     0.150178   
H141     H      0.544060000000     0.769350000000     0.706900000000     0.0463847  
H142     H      0.569070000000     0.660420000000     0.718060000000     0.0383756  
H143     H      0.652080000000     0.715460000000     0.737450000000     0.0603351  
H144     H      0.454980000000     0.804840000000     0.750410000000     0.0381184  
H145     H      0.617930000000     0.630030000000     0.727650000000     0.0462666  
H146     H      0.557740000000     0.808730000000     0.771880000000     0.0376282  
H147     H      0.473680000000     0.754750000000     0.753000000000     0.037082   
H148     H      0.520770000000     0.842400000000     0.800460000000     0.0476443  
H149     H      0.690550000000     0.683490000000     0.708380000000     0.0105181  
H150     H      0.583290000000     0.730290000000     0.693770000000     0.0426823  
H151     H      0.606760000000     0.627310000000     0.689500000000     0.0457276  
H152     H      0.542660000000     0.739000000000     0.796460000000     0.0435097  
H153     H      0.590180000000     0.678410000000     0.688030000000     0.0399746  
H154     H      0.435590000000     0.787670000000     0.781600000000     0.0451153  
H155     H      0.536620000000     0.791080000000     0.802120000000     0.0409997  
H156     H      0.486450000000     0.758800000000     0.790830000000     0.0400221  
H157     H      0.581910000000     0.699940000000     0.783330000000     0.0508539  
H158     H      0.639700000000     0.711050000000     0.699640000000     0.0487265  
H159     H      0.509140000000     0.839510000000     0.762400000000     0.0386305  
H160     H      0.693280000000     0.649850000000     0.743480000000     0.148898   
H161     H      0.533300000000     0.940140000000     0.017380000000     0.046077   
H162     H      0.548280000000     0.050680000000     0.012950000000     0.0379673  
H163     H      0.637670000000     0.002390000000     0.997070000000     0.0604368  
H164     H      0.450200000000     0.902520000000     0.968650000000     0.0372689  
H165     H      0.593890000000     0.085230000000     0.007300000000     0.0460614  
H166     H      0.553830000000     0.905710000000     0.949740000000     0.0374586  
H167     H      0.465190000000     0.953510000000     0.969850000000     0.0363657  
H168     H      0.520420000000     0.872310000000     0.917560000000     0.0470653  
H169     H      0.670430000000     0.036000000000     0.029430000000     0.0101993  
H170     H      0.567810000000     0.980850000000     0.034780000000     0.0423818  
H171     H      0.580370000000     0.085150000000     0.044960000000     0.0448681  
H172     H      0.535050000000     0.975510000000     0.929740000000     0.0429418  
H173     H      0.569010000000     0.033170000000     0.043460000000     0.0392136  
H174     H      0.430710000000     0.920610000000     0.938070000000     0.0444834  
H175     H      0.532310000000     0.924240000000     0.920270000000     0.040248   
H176     H      0.479560000000     0.952650000000     0.932240000000     0.039383   
H177     H      0.569720000000     0.016110000000     0.947100000000     0.0506677  
H178     H      0.621840000000     0.004930000000     0.034060000000     0.0483586  
H179     H      0.507760000000     0.871460000000     0.955470000000     0.0383393  
H180     H      0.673700000000     0.070170000000     0.995040000000     0.150228   
H181     H      0.030100000000     0.775270000000     0.201800000000     0.0459645  
H182     H      0.056720000000     0.666280000000     0.212530000000     0.0380709  
H183     H      0.138390000000     0.723010000000     0.230950000000     0.0599398  
H184     H      0.942870000000     0.812160000000     0.247290000000     0.0374035  
H185     H      0.105640000000     0.636290000000     0.222520000000     0.0453506  
H186     H      0.045990000000     0.814580000000     0.266520000000     0.0374703  
H187     H      0.960570000000     0.761710000000     0.248970000000     0.036564   
H188     H      0.010380000000     0.848450000000     0.296110000000     0.0479066  
H189     H      0.177540000000     0.691190000000     0.202430000000     0.00937599 
H190     H      0.069090000000     0.736160000000     0.188160000000     0.0422186  
H191     H      0.095330000000     0.633550000000     0.184190000000     0.0453241  
H192     H      0.030440000000     0.745050000000     0.291420000000     0.0433395  
H193     H      0.077670000000     0.684220000000     0.182390000000     0.0394074  
H194     H      0.923790000000     0.794850000000     0.278560000000     0.0447961  
H195     H      0.025570000000     0.796950000000     0.297130000000     0.041269   
H196     H      0.974360000000     0.765180000000     0.286580000000     0.0398838  
H197     H      0.069520000000     0.706050000000     0.277810000000     0.0509219  
H198     H      0.126000000000     0.717430000000     0.193310000000     0.0481371  
H199     H      0.997420000000     0.845810000000     0.258360000000     0.0378684  
H200     H      0.181950000000     0.658980000000     0.238650000000     0.149094   
H201     H      0.310380000000     0.760900000000     0.035770000000     0.0461112  
H202     H      0.296610000000     0.771240000000     0.922720000000     0.0379576  
H203     H      0.390690000000     0.737650000000     0.951840000000     0.0595336  
H204     H      0.232320000000     0.719290000000     0.085810000000     0.0390273  
H205     H      0.332630000000     0.765490000000     0.879920000000     0.0465044  
H206     H      0.325710000000     0.686710000000     0.055470000000     0.0371597  
H207     H      0.232370000000     0.726060000000     0.033000000000     0.0364116  
H208     H      0.296450000000     0.655030000000     0.092240000000     0.0469608  
H209     H      0.421310000000     0.770020000000     0.916820000000     0.00881944 
H210     H      0.336450000000     0.779690000000     0.990740000000     0.0418185  
H211     H      0.326170000000     0.803420000000     0.886720000000     0.0453833  
H212     H      0.284370000000     0.681980000000     0.990520000000     0.0427291  
H213     H      0.326240000000     0.795600000000     0.939940000000     0.0389301  
H214     H      0.202210000000     0.694880000000     0.069690000000     0.0442836  
H215     H      0.292800000000     0.664620000000     0.039660000000     0.0396582  
H216     H      0.237850000000     0.687820000000     0.026400000000     0.0390627  
H217     H      0.311010000000     0.700540000000     0.945590000000     0.0501693  
H218     H      0.382240000000     0.775640000000     0.957010000000     0.0472098  
H219     H      0.294430000000     0.692970000000     0.100710000000     0.0392834  
H220     H      0.409370000000     0.742390000000     0.878020000000     0.148852   
H221     H      0.368750000000     0.452530000000     0.211880000000     0.045732   
H222     H      0.324040000000     0.555450000000     0.226480000000     0.038059   
H223     H      0.248020000000     0.491570000000     0.215840000000     0.0598894  
H224     H      0.446410000000     0.422880000000     0.272210000000     0.0368594  
H225     H      0.270940000000     0.581080000000     0.227710000000     0.0447241  
H226     H      0.342510000000     0.404530000000     0.268560000000     0.037104   
H227     H      0.418120000000     0.469500000000     0.273870000000     0.0365282  
H228     H      0.375590000000     0.372790000000     0.302640000000     0.0465926  
H229     H      0.215730000000     0.525080000000     0.182660000000     0.0076976  
H230     H      0.329000000000     0.488720000000     0.192680000000     0.0420695  
H231     H      0.291870000000     0.589400000000     0.193770000000     0.0448892  
H232     H      0.336090000000     0.471770000000     0.300110000000     0.043471   
H233     H      0.315690000000     0.540930000000     0.190420000000     0.038948   
H234     H      0.452070000000     0.438510000000     0.308040000000     0.0450537  
H235     H      0.350610000000     0.421220000000     0.303710000000     0.0409815  
H236     H      0.395500000000     0.459830000000     0.306850000000     0.0403557  
H237     H      0.296260000000     0.507800000000     0.280900000000     0.0509994  
H238     H      0.271220000000     0.504000000000     0.184260000000     0.0473508  
H239     H      0.397030000000     0.380490000000     0.268740000000     0.0367355  
H240     H      0.193840000000     0.549170000000     0.220280000000     0.149745   
H241     H      0.119090000000     0.270600000000     0.699600000000     0.0459188  
H242     H      0.082320000000     0.267000000000     0.807200000000     0.0383332  
H243     H      0.002530000000     0.277570000000     0.746020000000     0.05211    
H244     H      0.186310000000     0.203050000000     0.667230000000     0.0373857  
H245     H      0.032030000000     0.270600000000     0.836630000000     0.0468276  
H246     H      0.081140000000     0.216250000000     0.656580000000     0.0367324  
H247     H      0.162480000000     0.204940000000     0.716180000000     0.0365845  
H248     H      0.106090000000     0.179160000000     0.622850000000     0.0467076  
H249     H      0.975600000000     0.314720000000     0.779740000000     0.00682398 
H250     H      0.085080000000     0.294580000000     0.737620000000     0.0420986  
H251     H      0.055260000000     0.303710000000     0.840640000000     0.0451389  
H252     H      0.079100000000     0.187840000000     0.726350000000     0.0429094  
H253     H      0.075270000000     0.301810000000     0.790320000000     0.0388794  
H254     H      0.188080000000     0.167420000000     0.683010000000     0.0444134  
H255     H      0.086990000000     0.181380000000     0.673740000000     0.0400743  
H256     H      0.134810000000     0.174750000000     0.708870000000     0.0395316  
H257     H      0.045110000000     0.211820000000     0.764310000000     0.0501456  
H258     H      0.028930000000     0.307920000000     0.755350000000     0.0476602  
H259     H      0.131890000000     0.210830000000     0.627430000000     0.0376225  
H260     H      0.952980000000     0.271990000000     0.780560000000     0.141786   
H261     H      0.787780000000     0.263850000000     0.020170000000     0.0462044  
H262     H      0.825400000000     0.271200000000     0.912400000000     0.0383989  
H263     H      0.904350000000     0.256240000000     0.973580000000     0.0602927  
H264     H      0.705080000000     0.206430000000     0.042090000000     0.0391784  
H265     H      0.877120000000     0.271150000000     0.884250000000     0.0468032  
H266     H      0.811530000000     0.197690000000     0.053100000000     0.0373218  
H267     H      0.730160000000     0.210570000000     0.993930000000     0.036935   
H268     H      0.777110000000     0.161320000000     0.081180000000     0.04718    
H269     H      0.940670000000     0.292480000000     0.947580000000     0.00933621 
H270     H      0.827280000000     0.286980000000     0.985850000000     0.0422591  
H271     H      0.861450000000     0.307590000000     0.885890000000     0.0449933  
H272     H      0.807510000000     0.181040000000     0.979930000000     0.0433657  
H273     H      0.839720000000     0.300560000000     0.935380000000     0.0391042  
H274     H      0.695270000000     0.174230000000     0.021700000000     0.0450909  
H275     H      0.796890000000     0.167770000000     0.031030000000     0.0400535  
H276     H      0.749460000000     0.175280000000     0.996540000000     0.039511   
H277     H      0.847030000000     0.204170000000     0.945610000000     0.0514315  
H278     H      0.886100000000     0.291850000000     0.970780000000     0.0481366  
H279     H      0.760950000000     0.197610000000     0.082690000000     0.0399812  
H280     H      0.954950000000     0.261140000000     0.912710000000     0.151578   
H281     H      0.820030000000     0.460480000000     0.708670000000     0.0461238  
H282     H      0.839110000000     0.456730000000     0.820490000000     0.0380564  
H283     H      0.927610000000     0.470830000000     0.769840000000     0.0596634  
H284     H      0.736430000000     0.511270000000     0.677980000000     0.0385984  
H285     H      0.886290000000     0.457910000000     0.854380000000     0.0450415  
H286     H      0.840610000000     0.531120000000     0.679780000000     0.0372979  
H287     H      0.754160000000     0.506050000000     0.728650000000     0.0368001  
H288     H      0.805410000000     0.565570000000     0.650110000000     0.0475883  
H289     H      0.959160000000     0.434990000000     0.800820000000     0.00865764 
H290     H      0.855610000000     0.439150000000     0.747160000000     0.0423427  
H291     H      0.870110000000     0.421630000000     0.852490000000     0.0451536  
H292     H      0.825810000000     0.543390000000     0.751910000000     0.0432239  
H293     H      0.857060000000     0.426850000000     0.800270000000     0.0398785  
H294     H      0.718140000000     0.540020000000     0.699290000000     0.045283   
H295     H      0.819130000000     0.557930000000     0.701740000000     0.040078   
H296     H      0.768250000000     0.543160000000     0.730490000000     0.0396159  
H297     H      0.861860000000     0.522170000000     0.790150000000     0.0504439  
H298     H      0.909260000000     0.435160000000     0.770650000000     0.0479328  
H299     H      0.794080000000     0.528200000000     0.645400000000     0.039043   
H300     H      0.966600000000     0.466530000000     0.837230000000     0.147742   
H301     H      0.095440000000     0.534050000000     0.973930000000     0.0462339  
H302     H      0.009580000000     0.450960000000     0.990620000000     0.0379441  
H303     H      0.099120000000     0.428540000000     0.944730000000     0.060259   
H304     H      0.114310000000     0.590440000000     0.045170000000     0.0386968  
H305     H      0.004020000000     0.400420000000     0.977640000000     0.0462916  
H306     H      0.172630000000     0.519030000000     0.016810000000     0.0370726  
H307     H      0.076660000000     0.549110000000     0.044880000000     0.0367515  
H308     H      0.200990000000     0.550120000000     0.054930000000     0.0448076  
H309     H      0.065120000000     0.399150000000     0.909060000000     0.00969404 
H310     H      0.066030000000     0.494030000000     0.949330000000     0.0423302  
H311     H      0.975140000000     0.421120000000     0.955630000000     0.042915   
H312     H      0.113220000000     0.479440000000     0.049190000000     0.043117   
H313     H      0.014400000000     0.461770000000     0.952770000000     0.0387782  
H314     H      0.104120000000     0.580940000000     0.082390000000     0.0472736  
H315     H      0.159130000000     0.511610000000     0.053900000000     0.0397784  
H316     H      0.102890000000     0.529360000000     0.070370000000     0.0403757  
H317     H      0.084760000000     0.439160000000     0.024210000000     0.0504916  
H318     H      0.066450000000     0.448350000000     0.925930000000     0.0472336  
H319     H      0.179180000000     0.570110000000     0.026920000000     0.0374988  
H320     H      0.061760000000     0.361800000000     0.939630000000     0.152662   
In1      In     0.962650000000     0.360750000000     0.872420000000     2.41037    
In2      In     0.198230000000     0.615590000000     0.135080000000     2.40635    
In3      In     0.424060000000     0.854650000000     0.859150000000     2.40158    
In4      In     0.676340000000     0.109820000000     0.100950000000     2.40392    
In5      In     0.458770000000     0.361300000000     0.375900000000     2.41284    
In6      In     0.704100000000     0.616400000000     0.631350000000     2.40342    
In7      In     0.917010000000     0.858720000000     0.359180000000     2.40833    
In8      In     0.185100000000     0.106290000000     0.599410000000     2.41015    
N1       N      0.967280000000     0.892910000000     0.428950000000    -0.188608   
N2       N      0.003320000000     0.928650000000     0.468060000000    -0.0997169  
N3       N      0.077380000000     0.023430000000     0.515940000000    -0.11296    
N4       N      0.120840000000     0.059120000000     0.548840000000    -0.168255   
N5       N      0.749560000000     0.685160000000     0.591870000000    -0.182507   
N6       N      0.782150000000     0.718830000000     0.548770000000    -0.100674   
N7       N      0.842300000000     0.754230000000     0.440700000000    -0.113494   
N8       N      0.873690000000     0.788410000000     0.397380000000    -0.168112   
N9       N      0.397580000000     0.327940000000     0.439070000000    -0.182329   
N10      N      0.356800000000     0.290350000000     0.472430000000    -0.100506   
N11      N      0.286730000000     0.189670000000     0.511690000000    -0.113202   
N12      N      0.246580000000     0.150490000000     0.543680000000    -0.168075   
N13      N      0.508060000000     0.417060000000     0.429900000000    -0.181912   
N14      N      0.542090000000     0.454980000000     0.468170000000    -0.100056   
N15      N      0.620270000000     0.544490000000     0.521340000000    -0.113336   
N16      N      0.656630000000     0.578250000000     0.562070000000    -0.169046   
N17      N      0.721600000000     0.048100000000     0.151280000000    -0.183287   
N18      N      0.754310000000     0.010880000000     0.191260000000    -0.100354   
N19      N      0.826230000000     0.963760000000     0.288780000000    -0.11342    
N20      N      0.864350000000     0.926460000000     0.324860000000    -0.168555   
N21      N      0.512550000000     0.296230000000     0.337790000000    -0.188535   
N22      N      0.543650000000     0.256210000000     0.299750000000    -0.0998016  
N23      N      0.590090000000     0.198080000000     0.196930000000    -0.113158   
N24      N      0.624060000000     0.162550000000     0.156290000000    -0.168353   
N25      N      0.223700000000     0.041610000000     0.649860000000    -0.187434   
N26      N      0.255010000000     0.003950000000     0.690230000000    -0.0996017  
N27      N      0.333480000000     0.957350000000     0.784120000000    -0.113252   
N28      N      0.372420000000     0.920140000000     0.819650000000    -0.16785    
N29      N      0.651860000000     0.651770000000     0.699390000000    -0.187819   
N30      N      0.608670000000     0.688940000000     0.730940000000    -0.0998847  
N31      N      0.517640000000     0.780570000000     0.759360000000    -0.113283   
N32      N      0.475280000000     0.818300000000     0.791090000000    -0.168257   
N33      N      0.628540000000     0.065130000000     0.036130000000    -0.188036   
N34      N      0.591600000000     0.025850000000     0.001380000000    -0.0997994  
N35      N      0.511180000000     0.930540000000     0.963120000000    -0.11338    
N36      N      0.472840000000     0.892730000000     0.927830000000    -0.169332   
N37      N      0.140000000000     0.658180000000     0.194780000000    -0.188094   
N38      N      0.095810000000     0.695350000000     0.225240000000    -0.0997802  
N39      N      0.005170000000     0.786850000000     0.254740000000    -0.113442   
N40      N      0.964380000000     0.824680000000     0.287820000000    -0.168545   
N41      N      0.375600000000     0.786650000000     0.897230000000    -0.187887   
N42      N      0.341730000000     0.751210000000     0.938080000000    -0.0999322  
N43      N      0.281120000000     0.709740000000     0.043700000000    -0.113228   
N44      N      0.248030000000     0.675580000000     0.086130000000    -0.168211   
N45      N      0.248420000000     0.561470000000     0.190640000000    -0.188258   
N46      N      0.286250000000     0.522680000000     0.225230000000    -0.0997501  
N47      N      0.379320000000     0.438150000000     0.267710000000    -0.113354   
N48      N      0.417610000000     0.402430000000     0.305300000000    -0.169269   
N49      N      0.009530000000     0.306330000000     0.815230000000    -0.182792   
N50      N      0.041990000000     0.268010000000     0.776300000000    -0.100218   
N51      N      0.121700000000     0.214370000000     0.687250000000    -0.113249   
N52      N      0.151220000000     0.173770000000     0.648810000000    -0.169045   
N53      N      0.905670000000     0.298570000000     0.911880000000    -0.187792   
N54      N      0.863950000000     0.259770000000     0.942870000000    -0.0994802  
N55      N      0.771670000000     0.208110000000     0.023530000000    -0.113019   
N56      N      0.731750000000     0.169420000000     0.056420000000    -0.167297   
N57      N      0.918120000000     0.429040000000     0.831350000000    -0.187717   
N58      N      0.882230000000     0.467520000000     0.794770000000    -0.0999126  
N59      N      0.798970000000     0.514970000000     0.704440000000    -0.113204   
N60      N      0.758580000000     0.552140000000     0.670070000000    -0.167698   
N61      N      0.018610000000     0.403950000000     0.933140000000    -0.187185   
N62      N      0.056590000000     0.439280000000     0.971250000000    -0.0996297  
N63      N      0.123170000000     0.534050000000     0.027070000000    -0.11314    
N64      N      0.154690000000     0.570890000000     0.068110000000    -0.167773   
O1       O      0.966270000000     0.337220000000     0.828340000000    -0.501456   
O2       O      0.006780000000     0.332140000000     0.858490000000    -0.498383   
O3       O      0.012570000000     0.378310000000     0.890000000000    -0.499266   
O4       O      0.918370000000     0.391290000000     0.864470000000    -0.50165    
O5       O      0.953460000000     0.326780000000     0.907970000000    -0.509726   
O6       O      0.962880000000     0.397940000000     0.839220000000    -0.509367   
O7       O      0.968050000000     0.387240000000     0.914510000000    -0.505904   
O8       O      0.914200000000     0.334170000000     0.877150000000    -0.498479   
O9       O      0.199630000000     0.655850000000     0.105970000000    -0.507216   
O10      O      0.246150000000     0.634710000000     0.115160000000    -0.497186   
O11      O      0.148940000000     0.622410000000     0.160310000000    -0.496522   
O12      O      0.152690000000     0.601160000000     0.108300000000    -0.49593    
O13      O      0.242820000000     0.603990000000     0.164610000000    -0.500707   
O14      O      0.200770000000     0.584660000000     0.095890000000    -0.505383   
O15      O      0.189420000000     0.651280000000     0.168960000000    -0.509093   
O16      O      0.204280000000     0.572490000000     0.159490000000    -0.510637   
O17      O      0.426170000000     0.885400000000     0.898490000000    -0.511656   
O18      O      0.470530000000     0.861800000000     0.888140000000    -0.495965   
O19      O      0.376560000000     0.828570000000     0.869720000000    -0.49423    
O20      O      0.376210000000     0.881190000000     0.851180000000    -0.489861   
O21      O      0.427900000000     0.823740000000     0.820080000000    -0.508103   
O22      O      0.420380000000     0.892890000000     0.827490000000    -0.506234   
O23      O      0.423370000000     0.813020000000     0.886180000000    -0.511098   
O24      O      0.470610000000     0.849840000000     0.830110000000    -0.494592   
O25      O      0.629400000000     0.121320000000     0.128010000000    -0.491307   
O26      O      0.671630000000     0.149550000000     0.130370000000    -0.509526   
O27      O      0.674920000000     0.075420000000     0.064920000000    -0.510606   
O28      O      0.683630000000     0.142200000000     0.063640000000    -0.505273   
O29      O      0.675570000000     0.075250000000     0.136930000000    -0.510763   
O30      O      0.724710000000     0.135420000000     0.093000000000    -0.48933    
O31      O      0.630180000000     0.099610000000     0.072730000000    -0.498684   
O32      O      0.722260000000     0.083600000000     0.115680000000    -0.493662   
O33      O      0.449640000000     0.335700000000     0.417890000000    -0.50613    
O34      O      0.406830000000     0.353600000000     0.396330000000    -0.49621    
O35      O      0.464650000000     0.314840000000     0.359480000000    -0.511267   
O36      O      0.457480000000     0.397850000000     0.341940000000    -0.507502   
O37      O      0.461070000000     0.402240000000     0.403920000000    -0.502972   
O38      O      0.419100000000     0.365880000000     0.339740000000    -0.502295   
O39      O      0.506220000000     0.343290000000     0.353830000000    -0.500533   
O40      O      0.505900000000     0.377140000000     0.399560000000    -0.493117   
O41      O      0.703170000000     0.657060000000     0.602950000000    -0.509905   
O42      O      0.750280000000     0.644420000000     0.621220000000    -0.491203   
O43      O      0.699400000000     0.647140000000     0.670470000000    -0.50966    
O44      O      0.657970000000     0.608680000000     0.602190000000    -0.495301   
O45      O      0.753050000000     0.591340000000     0.639050000000    -0.491081   
O46      O      0.702670000000     0.585330000000     0.592240000000    -0.510879   
O47      O      0.657390000000     0.620260000000     0.660410000000    -0.496272   
O48      O      0.709380000000     0.577820000000     0.662450000000    -0.506537   
O49      O      0.919520000000     0.816940000000     0.385720000000    -0.50964    
O50      O      0.871440000000     0.830340000000     0.369920000000    -0.492926   
O51      O      0.965030000000     0.867780000000     0.385270000000    -0.499217   
O52      O      0.962200000000     0.854390000000     0.328430000000    -0.494208   
O53      O      0.868120000000     0.884080000000     0.351500000000    -0.493905   
O54      O      0.918500000000     0.829500000000     0.318650000000    -0.50929    
O55      O      0.918860000000     0.884190000000     0.402210000000    -0.512244   
O56      O      0.913270000000     0.900580000000     0.332730000000    -0.511087   
O57      O      0.194480000000     0.134090000000     0.558840000000    -0.505331   
O58      O      0.236880000000     0.123010000000     0.585120000000    -0.494528   
O59      O      0.181540000000     0.073890000000     0.637330000000    -0.506224   
O60      O      0.188780000000     0.136840000000     0.638910000000    -0.508506   
O61      O      0.173790000000     0.075570000000     0.561530000000    -0.508541   
O62      O      0.147210000000     0.142010000000     0.609950000000    -0.501319   
O63      O      0.226920000000     0.075010000000     0.612380000000    -0.500482   
O64      O      0.132570000000     0.089020000000     0.588140000000    -0.49723    
O65      O      0.010460000000     0.867500000000     0.453340000000    -0.280736   
O66      O      0.791670000000     0.714450000000     0.612470000000    -0.273921   
O67      O      0.350470000000     0.352050000000     0.458330000000    -0.274065   
O68      O      0.540680000000     0.391410000000     0.464040000000    -0.272157   
O69      O      0.759240000000     0.016960000000     0.127240000000    -0.273458   
O70      O      0.510860000000     0.248870000000     0.356740000000    -0.280617   
O71      O      0.252750000000     0.003790000000     0.626210000000    -0.280676   
O72      O      0.673860000000     0.663230000000     0.745950000000    -0.280151   
O73      O      0.655540000000     0.055870000000     0.991080000000    -0.280159   
O74      O      0.161920000000     0.671740000000     0.240780000000    -0.280223   
O75      O      0.394500000000     0.738410000000     0.895100000000    -0.280612   
O76      O      0.214460000000     0.538250000000     0.225880000000    -0.280331   
O77      O      0.971100000000     0.272980000000     0.795620000000    -0.273903   
O78      O      0.934100000000     0.255280000000     0.923270000000    -0.279386   
O79      O      0.948170000000     0.472310000000     0.823650000000    -0.28068    
O80      O      0.067440000000     0.380120000000     0.949910000000    -0.280076   


