data_structure

_audit_creation_method RASPA-1.0
_audit_creation_date 2023-5-25
_audit_author_name 'Poobodin Mano'

_cell_length_a    38.9784
_cell_length_b    46.8136
_cell_length_c    46.9787
_cell_angle_alpha 90
_cell_angle_beta  90
_cell_angle_gamma 90
_cell_volume      85722.9

_symmetry_cell_setting          triclinic
_symmetry_space_group_name_Hall 'P 1'
_symmetry_space_group_name_H-M  'P 1'
_symmetry_Int_Tables_number     1

_symmetry_equiv_pos_as_xyz 'x,y,z'

loop_
_atom_site_label
_atom_site_type_symbol
_atom_site_fract_x
_atom_site_fract_y
_atom_site_fract_z
_atom_site_charge
C1       C      0.985190000000     0.397480000000     0.894270000000     0.414259   
C2       C      0.911370000000     0.331650000000     0.897160000000     0.407791   
C3       C      0.913690000000     0.401390000000     0.825330000000     0.407404   
C4       C      0.977040000000     0.324250000000     0.826570000000     0.410972   
C5       C      0.243340000000     0.571070000000     0.145720000000     0.410179   
C6       C      0.172670000000     0.573420000000     0.077610000000     0.401526   
C7       C      0.169500000000     0.639330000000     0.151890000000     0.408616   
C8       C      0.236120000000     0.650920000000     0.084700000000     0.413333   
C9       C      0.487630000000     0.800080000000     0.813950000000     0.409702   
C10      C      0.420340000000     0.799110000000     0.880610000000     0.408865   
C11      C      0.485450000000     0.876670000000     0.878610000000     0.410481   
C12      C      0.416890000000     0.875090000000     0.815000000000     0.409638   
C13      C      0.661290000000     0.058230000000     0.061780000000     0.412124   
C14      C      0.657150000000     0.144870000000     0.114830000000     0.41057    
C15      C      0.723960000000     0.076890000000     0.132930000000     0.404553   
C16      C      0.723770000000     0.129920000000     0.045980000000     0.40951    
C17      C      0.417550000000     0.373720000000     0.315250000000     0.405235   
C18      C      0.481970000000     0.298010000000     0.319570000000     0.409179   
C19      C      0.486480000000     0.374690000000     0.384660000000     0.402684   
C20      C      0.417200000000     0.301930000000     0.386580000000     0.412111   
C21      C      0.745460000000     0.565650000000     0.620440000000     0.406756   
C22      C      0.677590000000     0.637160000000     0.621760000000     0.402029   
C23      C      0.742460000000     0.637190000000     0.549080000000     0.413963   
C24      C      0.673610000000     0.567640000000     0.550330000000     0.40877    
C25      C      0.988100000000     0.835610000000     0.316090000000     0.401579   
C26      C      0.982190000000     0.913480000000     0.379040000000     0.404303   
C27      C      0.914230000000     0.899600000000     0.309190000000     0.412372   
C28      C      0.922150000000     0.837810000000     0.388880000000     0.404407   
C29      C      0.160780000000     0.141670000000     0.647970000000     0.4043     
C30      C      0.231010000000     0.065990000000     0.646260000000     0.404786   
C31      C      0.164830000000     0.068450000000     0.579760000000     0.409379   
C32      C      0.230920000000     0.145060000000     0.584440000000     0.40352    
C33      C      0.144260000000     0.029970000000     0.513440000000    -0.0270546  
C34      C      0.001500000000     0.957630000000     0.441210000000    -0.0308234  
C35      C      0.031930000000     0.945400000000     0.385830000000    -0.0053412  
C36      C      0.978390000000     0.951080000000     0.415730000000    -0.00530637 
C37      C      0.058620000000     0.011200000000     0.457580000000    -0.0514719  
C38      C      0.088390000000     0.974170000000     0.497250000000    -0.0505612  
C39      C      0.053800000000     0.981690000000     0.454800000000     0.0632239  
C40      C      0.053080000000     0.952260000000     0.412380000000    -0.0308326  
C41      C      0.093400000000     0.003660000000     0.499910000000     0.066974   
C42      C      0.093590000000     0.031030000000     0.543580000000    -0.0198257  
C43      C      0.078160000000     0.022200000000     0.479980000000    -0.0560476  
C44      C      0.114920000000     0.037560000000     0.570290000000    -0.0117021  
C45      C      0.168040000000     0.036040000000     0.538580000000    -0.00325833 
C46      C      0.068700000000     0.963180000000     0.474950000000    -0.0534472  
C47      C      0.813300000000     0.671640000000     0.509090000000    -0.0278373  
C48      C      0.853440000000     0.803130000000     0.430200000000    -0.0312053  
C49      C      0.927440000000     0.797710000000     0.422630000000    -0.00474133 
C50      C      0.874730000000     0.829490000000     0.422600000000    -0.00462718 
C51      C      0.852990000000     0.756370000000     0.487900000000    -0.0517387  
C52      C      0.816050000000     0.719060000000     0.452930000000    -0.0496773  
C53      C      0.854280000000     0.759810000000     0.458310000000     0.0637838  
C54      C      0.903940000000     0.772610000000     0.430090000000    -0.0310879  
C55      C      0.814420000000     0.715850000000     0.482540000000     0.063695   
C56      C      0.765790000000     0.704840000000     0.512660000000    -0.0239609  
C57      C      0.833360000000     0.734540000000     0.500010000000    -0.0542169  
C58      C      0.740200000000     0.681110000000     0.520260000000    -0.01523    
C59      C      0.790510000000     0.646050000000     0.516300000000    -0.00573777 
C60      C      0.835890000000     0.740760000000     0.440810000000    -0.0538631  
C61      C      0.345310000000     0.267620000000     0.424670000000    -0.0271536  
C62      C      0.303930000000     0.181860000000     0.551160000000    -0.0309352  
C63      C      0.229210000000     0.182850000000     0.547930000000    -0.00478905 
C64      C      0.282620000000     0.174670000000     0.577570000000    -0.00494984 
C65      C      0.313290000000     0.242220000000     0.509320000000    -0.0519668  
C66      C      0.338040000000     0.206620000000     0.466150000000    -0.0509484  
C67      C      0.305880000000     0.212960000000     0.510080000000     0.063196   
C68      C      0.252580000000     0.189680000000     0.522710000000    -0.0309109  
C69      C      0.345210000000     0.235910000000     0.465270000000     0.0636492  
C70      C      0.398020000000     0.259010000000     0.450920000000    -0.022584   
C71      C      0.332840000000     0.253690000000     0.487170000000    -0.0548403  
C72      C      0.420380000000     0.266140000000     0.424940000000    -0.0154215  
C73      C      0.364850000000     0.274620000000     0.397360000000    -0.00454403 
C74      C      0.318590000000     0.195130000000     0.488350000000    -0.0543234  
C75      C      0.601330000000     0.523720000000     0.522950000000    -0.026614   
C76      C      0.558000000000     0.420410000000     0.410850000000    -0.0309357  
C77      C      0.488770000000     0.403970000000     0.428030000000    -0.00465423 
C78      C      0.542920000000     0.392410000000     0.399730000000    -0.00488224 
C79      C      0.579270000000     0.444250000000     0.478470000000    -0.0507812  
C80      C      0.580040000000     0.499460000000     0.455740000000    -0.0501628  
C81      C      0.561730000000     0.449840000000     0.453050000000     0.0631787  
C82      C      0.506630000000     0.431400000000     0.437740000000    -0.0309518  
C83      C      0.597660000000     0.493840000000     0.481120000000     0.0672912  
C84      C      0.652900000000     0.511550000000     0.496890000000    -0.0208717  
C85      C      0.597100000000     0.466010000000     0.492470000000    -0.0557722  
C86      C      0.671550000000     0.538810000000     0.506460000000    -0.0109255  
C87      C      0.616910000000     0.551540000000     0.534090000000    -0.00395654 
C88      C      0.562150000000     0.477710000000     0.441760000000    -0.0529473  
C89      C      0.889060000000     0.957980000000     0.260950000000    -0.0272308  
C90      C      0.743240000000     0.020500000000     0.184570000000    -0.0302629  
C91      C      0.774990000000     0.072930000000     0.163770000000    -0.00489435 
C92      C      0.720710000000     0.045440000000     0.174960000000    -0.0059794  
C93      C      0.802360000000     0.010980000000     0.238440000000    -0.0519589  
C94      C      0.829080000000     0.965230000000     0.207230000000    -0.0505352  
C95      C      0.795960000000     0.009230000000     0.209170000000     0.0636024  
C96      C      0.795480000000     0.046990000000     0.173930000000    -0.0308438  
C97      C      0.835770000000     0.967140000000     0.236450000000     0.0638986  
C98      C      0.838830000000     0.928970000000     0.271220000000    -0.0227778  
C99      C      0.822040000000     0.990130000000     0.252080000000    -0.0542385  
C100     C      0.860930000000     0.903660000000     0.281170000000    -0.0150771  
C101     C      0.913490000000     0.934050000000     0.269670000000    -0.00449083 
C102     C      0.809280000000     0.986020000000     0.193620000000    -0.0537685  
C103     C      0.637940000000     0.193130000000     0.173300000000    -0.0269218  
C104     C      0.496300000000     0.251640000000     0.257990000000    -0.0303201  
C105     C      0.534540000000     0.271190000000     0.307680000000    -0.00526112 
C106     C      0.477420000000     0.257750000000     0.285880000000    -0.00498047 
C107     C      0.559740000000     0.203690000000     0.237970000000    -0.0513491  
C108     C      0.573080000000     0.239640000000     0.191710000000    -0.0509764  
C109     C      0.548990000000     0.232200000000     0.238910000000     0.0641148  
C110     C      0.551310000000     0.264600000000     0.279000000000    -0.0300451  
C111     C      0.583970000000     0.211150000000     0.190820000000     0.0640108  
C112     C      0.584270000000     0.178120000000     0.151150000000    -0.0226218  
C113     C      0.577110000000     0.193160000000     0.214180000000    -0.0541453  
C114     C      0.602630000000     0.170470000000     0.123190000000    -0.0157929  
C115     C      0.658160000000     0.187170000000     0.146120000000    -0.00503997 
C116     C      0.555730000000     0.250180000000     0.215520000000    -0.0542077  
C117     C      0.343810000000     0.916570000000     0.785430000000    -0.02741    
C118     C      0.302860000000     0.022970000000     0.675630000000    -0.0306949  
C119     C      0.228550000000     0.027500000000     0.681810000000    -0.00547826 
C120     C      0.281630000000     0.035100000000     0.651080000000    -0.00467487 
C121     C      0.306890000000     0.956730000000     0.707740000000    -0.0511975  
C122     C      0.338900000000     0.983430000000     0.753880000000    -0.0503599  
C123     C      0.302830000000     0.986190000000     0.711710000000     0.064001   
C124     C      0.252340000000     0.015630000000     0.704860000000    -0.0304403  
C125     C      0.342960000000     0.953970000000     0.749910000000     0.0640062  
C126     C      0.394250000000     0.925470000000     0.756570000000    -0.0228237  
C127     C      0.326790000000     0.940660000000     0.726620000000    -0.0542893  
C128     C      0.418540000000     0.913770000000     0.779540000000    -0.0150893  
C129     C      0.365190000000     0.904660000000     0.809990000000    -0.00408554 
C130     C      0.319070000000     0.999500000000     0.734980000000    -0.0539134  
C131     C      0.561660000000     0.763130000000     0.781260000000    -0.027181   
C132     C      0.605720000000     0.674020000000     0.658080000000    -0.0305664  
C133     C      0.680440000000     0.671590000000     0.661340000000    -0.00487025 
C134     C      0.626290000000     0.666070000000     0.631560000000    -0.00532606 
C135     C      0.599830000000     0.735220000000     0.698670000000    -0.0512944  
C136     C      0.570490000000     0.701380000000     0.741250000000    -0.0508271  
C137     C      0.605640000000     0.705690000000     0.698660000000     0.063447   
C138     C      0.657300000000     0.679450000000     0.686500000000    -0.0309707  
C139     C      0.564490000000     0.730880000000     0.741140000000     0.0638257  
C140     C      0.511600000000     0.756080000000     0.751300000000    -0.0226853  
C141     C      0.579470000000     0.747800000000     0.719700000000    -0.0544168  
C142     C      0.486880000000     0.764330000000     0.775430000000    -0.0155956  
C143     C      0.539630000000     0.771120000000     0.806980000000    -0.00454286 
C144     C      0.590870000000     0.688790000000     0.720230000000    -0.0541792  
C145     C      0.644390000000     0.006990000000     0.004240000000    -0.0281556  
C146     C      0.504620000000     0.924470000000     0.939220000000    -0.0301152  
C147     C      0.536100000000     0.907280000000     0.885540000000    -0.00501918 
C148     C      0.481820000000     0.914710000000     0.914600000000    -0.0046479  
C149     C      0.560890000000     0.981260000000     0.948200000000    -0.0491966  
C150     C      0.588180000000     0.950860000000     0.994180000000    -0.0498918  
C151     C      0.555690000000     0.951720000000     0.949970000000     0.0644549  
C152     C      0.556520000000     0.917330000000     0.911480000000    -0.0299773  
C153     C      0.593180000000     0.980440000000     0.992490000000     0.0681622  
C154     C      0.591340000000     0.015760000000     0.030090000000    -0.020436   
C155     C      0.579530000000     0.995580000000     0.969200000000    -0.0544808  
C156     C      0.610740000000     0.027030000000     0.056230000000    -0.0107415  
C157     C      0.666250000000     0.017130000000     0.029290000000    -0.00225579 
C158     C      0.569670000000     0.936520000000     0.973100000000    -0.0529208  
C159     C      0.099260000000     0.683240000000     0.180760000000    -0.0274792  
C160     C      0.059170000000     0.788880000000     0.291490000000    -0.03087    
C161     C      0.991290000000     0.806930000000     0.272380000000    -0.00620281 
C162     C      0.044710000000     0.817410000000     0.301870000000    -0.00437017 
C163     C      0.081910000000     0.763310000000     0.224940000000    -0.0502263  
C164     C      0.078010000000     0.708250000000     0.247810000000    -0.0511825  
C165     C      0.063060000000     0.758650000000     0.249880000000     0.0638786  
C166     C      0.008320000000     0.778930000000     0.263430000000    -0.0297485  
C167     C      0.096730000000     0.712890000000     0.222790000000     0.0653983  
C168     C      0.150850000000     0.691840000000     0.208630000000    -0.0221934  
C169     C      0.098670000000     0.740690000000     0.211440000000    -0.0543785  
C170     C      0.167540000000     0.664020000000     0.198170000000    -0.0151765  
C171     C      0.113060000000     0.654830000000     0.169620000000    -0.00378836 
C172     C      0.061290000000     0.730890000000     0.261340000000    -0.0532973  
C173     C      0.255240000000     0.693220000000     0.021470000000    -0.0270277  
C174     C      0.399520000000     0.760290000000     0.946300000000    -0.0304798  
C175     C      0.370180000000     0.768300000000     0.889750000000    -0.00533555 
C176     C      0.423180000000     0.765330000000     0.920830000000    -0.00487576 
C177     C      0.341350000000     0.707110000000     0.964130000000    -0.051387   
C178     C      0.313260000000     0.745880000000     0.002980000000    -0.0508112  
C179     C      0.347260000000     0.736390000000     0.960570000000     0.0640708  
C180     C      0.348580000000     0.763170000000     0.916460000000    -0.0301723  
C181     C      0.307510000000     0.716580000000     0.006620000000     0.0638797  
C182     C      0.307100000000     0.688940000000     0.050160000000    -0.0223017  
C183     C      0.321620000000     0.697190000000     0.986900000000    -0.0541222  
C184     C      0.286270000000     0.682270000000     0.077130000000    -0.0161668  
C185     C      0.232270000000     0.687760000000     0.047270000000    -0.00494182 
C186     C      0.332910000000     0.755810000000     0.980140000000    -0.0540402  
C187     C      0.311620000000     0.520340000000     0.167890000000    -0.0271537  
C188     C      0.352710000000     0.424610000000     0.287240000000    -0.0310304  
C189     C      0.415580000000     0.396690000000     0.268200000000    -0.00462801 
C190     C      0.363360000000     0.396290000000     0.300810000000    -0.00467169 
C191     C      0.327600000000     0.443980000000     0.219680000000    -0.051296   
C192     C      0.342010000000     0.500480000000     0.234840000000    -0.0509612  
C193     C      0.350130000000     0.449490000000     0.242250000000     0.0632999  
C194     C      0.402340000000     0.424970000000     0.256120000000    -0.0311114  
C195     C      0.319280000000     0.494960000000     0.212420000000     0.0647191  
C196     C      0.265700000000     0.519210000000     0.202740000000    -0.0220811  
C197     C      0.312210000000     0.466460000000     0.204840000000    -0.0548394  
C198     C      0.250640000000     0.547570000000     0.192130000000    -0.0152625  
C199     C      0.299250000000     0.548820000000     0.155620000000    -0.00439223 
C200     C      0.357330000000     0.478000000000     0.249730000000    -0.0536575  
C201     C      0.046110000000     0.280820000000     0.794220000000    -0.0264869  
C202     C      0.086740000000     0.181650000000     0.678150000000    -0.031138   
C203     C      0.160860000000     0.177540000000     0.686150000000    -0.00416461 
C204     C      0.109100000000     0.171150000000     0.653540000000    -0.00421142 
C205     C      0.081360000000     0.246190000000     0.713980000000    -0.0505683  
C206     C      0.047800000000     0.216920000000     0.757760000000    -0.0503444  
C207     C      0.084900000000     0.216500000000     0.716120000000     0.0630542  
C208     C      0.135920000000     0.187800000000     0.709110000000    -0.0311679  
C209     C      0.044540000000     0.246640000000     0.755780000000     0.0677159  
C210     C      0.994920000000     0.276530000000     0.765120000000    -0.0202622  
C211     C      0.061370000000     0.261230000000     0.733590000000    -0.0559061  
C212     C      0.971670000000     0.287530000000     0.789190000000    -0.0114499  
C213     C      0.025670000000     0.291590000000     0.819790000000    -0.0042821  
C214     C      0.067780000000     0.201870000000     0.738130000000    -0.052904   
C215     C      0.795400000000     0.165820000000     0.011220000000    -0.026772   
C216     C      0.837400000000     0.294770000000     0.928980000000    -0.0311316  
C217     C      0.912000000000     0.294050000000     0.933870000000    -0.00382789 
C218     C      0.857810000000     0.322160000000     0.923490000000    -0.00390095 
C219     C      0.825510000000     0.251710000000     0.987890000000    -0.0512247  
C220     C      0.805840000000     0.207890000000     0.950850000000    -0.0497868  
C221     C      0.835210000000     0.252980000000     0.959220000000     0.0644438  
C222     C      0.889430000000     0.267830000000     0.938900000000    -0.0309788  
C223     C      0.796390000000     0.206500000000     0.979580000000     0.0642039  
C224     C      0.742280000000     0.190490000000     0.999050000000    -0.0220976  
C225     C      0.806200000000     0.228750000000     0.998060000000    -0.0538275  
C226     C      0.720640000000     0.163910000000     0.005890000000    -0.0164669  
C227     C      0.776230000000     0.138100000000     0.017720000000    -0.00527228 
C228     C      0.825040000000     0.230940000000     0.940640000000    -0.0539522  
C229     C      0.846830000000     0.429520000000     0.776920000000    -0.0270534  
C230     C      0.813810000000     0.539610000000     0.668760000000    -0.0309247  
C231     C      0.747140000000     0.520710000000     0.647680000000    -0.00472395 
C232     C      0.801130000000     0.550160000000     0.639790000000    -0.00471843 
C233     C      0.834340000000     0.472570000000     0.695510000000    -0.0506454  
C234     C      0.828060000000     0.496290000000     0.749890000000    -0.0507784  
C235     C      0.815620000000     0.497860000000     0.699130000000     0.0626884  
C236     C      0.762290000000     0.511490000000     0.676310000000    -0.0310506  
C237     C      0.846750000000     0.471000000000     0.746260000000     0.0672384  
C238     C      0.899590000000     0.455900000000     0.769080000000    -0.0199838  
C239     C      0.849790000000     0.459170000000     0.718810000000    -0.0559743  
C240     C      0.914730000000     0.446220000000     0.797740000000    -0.011982   
C241     C      0.858900000000     0.418870000000     0.806010000000    -0.00353167 
C242     C      0.812550000000     0.509670000000     0.726590000000    -0.0531561  
C243     C      0.009790000000     0.446280000000     0.953400000000    -0.0277472  
C244     C      0.154980000000     0.523700000000     0.017200000000    -0.0312207  
C245     C      0.117390000000     0.554520000000     0.061340000000    -0.00491869 
C246     C      0.171360000000     0.550110000000     0.030780000000    -0.00446526 
C247     C      0.080910000000     0.513810000000     0.976780000000    -0.0507988  
C248     C      0.085420000000     0.455770000000     0.990340000000    -0.0507305  
C249     C      0.100700000000     0.505180000000     0.000140000000     0.0634207  
C250     C      0.103960000000     0.527820000000     0.046320000000    -0.0307057  
C251     C      0.065460000000     0.464410000000     0.967090000000     0.0643853  
C252     C      0.057930000000     0.441650000000     0.921120000000    -0.0232751  
C253     C      0.063380000000     0.493660000000     0.960330000000    -0.0546223  
C254     C      0.042780000000     0.414930000000     0.906900000000    -0.0136488  
C255     C      0.991970000000     0.419910000000     0.941170000000    -0.00281633 
C256     C      0.102930000000     0.475910000000     0.006800000000    -0.054001   
H1       H      0.065140000000     0.940310000000     0.473410000000     0.0449915  
H2       H      0.158670000000     0.017100000000     0.497490000000     0.0404167  
H3       H      0.069960000000     0.019190000000     0.549810000000     0.0493861  
H4       H      0.029120000000     0.965240000000     0.373040000000     0.0408667  
H5       H      0.179700000000     0.015600000000     0.545760000000     0.0545822  
H6       H      0.987430000000     0.972260000000     0.455800000000     0.0392552  
H7       H      0.077240000000     0.962940000000     0.405580000000     0.0392026  
H8       H      0.955430000000     0.939220000000     0.423330000000     0.0466483  
H9       H      0.100280000000     0.053380000000     0.583130000000     0.0603173  
H10      H      0.099800000000     0.959700000000     0.512540000000     0.0588022  
H11      H      0.189280000000     0.050030000000     0.531140000000     0.0472897  
H12      H      0.047150000000     0.025680000000     0.442340000000     0.0478946  
H13      H      0.136840000000     0.050580000000     0.503330000000     0.0391754  
H14      H      0.046170000000     0.929590000000     0.372700000000     0.0491812  
H15      H      0.006980000000     0.937430000000     0.452900000000     0.0410699  
H16      H      0.059920000000     0.931930000000     0.423290000000     0.0412482  
H17      H      0.081400000000     0.045090000000     0.481700000000     0.0441945  
H18      H      0.085300000000     0.051580000000     0.533800000000     0.0387088  
H19      H      0.969460000000     0.971610000000     0.406410000000     0.0401605  
H20      H      0.135790000000     0.962570000000     0.585770000000     0.158792   
H21      H      0.836700000000     0.742790000000     0.417880000000     0.0466949  
H22      H      0.834640000000     0.664070000000     0.495260000000     0.0404063  
H23      H      0.752120000000     0.722710000000     0.501900000000     0.0487721  
H24      H      0.939670000000     0.805630000000     0.442500000000     0.0402574  
H25      H      0.784450000000     0.634330000000     0.496360000000     0.0618448  
H26      H      0.830920000000     0.810150000000     0.442970000000     0.0410105  
H27      H      0.918970000000     0.756890000000     0.442770000000     0.0390528  
H28      H      0.859340000000     0.843430000000     0.408300000000     0.0505276  
H29      H      0.723320000000     0.689580000000     0.537390000000     0.0585065  
H30      H      0.801760000000     0.704750000000     0.439230000000     0.0506296  
H31      H      0.805340000000     0.631210000000     0.530100000000     0.0504793  
H32      H      0.867160000000     0.770740000000     0.501600000000     0.048608   
H33      H      0.824670000000     0.680310000000     0.529060000000     0.0394484  
H34      H      0.948170000000     0.789930000000     0.408330000000     0.0467368  
H35      H      0.843830000000     0.793130000000     0.410220000000     0.0437695  
H36      H      0.895360000000     0.761960000000     0.410120000000     0.0421607  
H37      H      0.832750000000     0.732390000000     0.522930000000     0.0440606  
H38      H      0.776750000000     0.713570000000     0.532750000000     0.0388753  
H39      H      0.879960000000     0.841700000000     0.442430000000     0.0411144  
H40      H      0.745410000000     0.671980000000     0.453440000000     0.154654   
H41      H      0.313310000000     0.172430000000     0.488480000000     0.0449369  
H42      H      0.319970000000     0.258420000000     0.418720000000     0.0400028  
H43      H      0.411850000000     0.243560000000     0.464830000000     0.0450274  
H44      H      0.220800000000     0.203270000000     0.557800000000     0.0389274  
H45      H      0.364620000000     0.255520000000     0.383300000000     0.0567263  
H46      H      0.328580000000     0.191540000000     0.558240000000     0.039579   
H47      H      0.239100000000     0.205170000000     0.508630000000     0.0383489  
H48      H      0.296150000000     0.157840000000     0.589940000000     0.048745   
H49      H      0.442670000000     0.278760000000     0.432730000000     0.0589246  
H50      H      0.347440000000     0.192690000000     0.449480000000     0.0503065  
H51      H      0.351000000000     0.291980000000     0.385990000000     0.0490954  
H52      H      0.303720000000     0.256160000000     0.525910000000     0.048013   
H53      H      0.340710000000     0.287720000000     0.436760000000     0.0395161  
H54      H      0.205940000000     0.171710000000     0.539910000000     0.0469168  
H55      H      0.309850000000     0.161780000000     0.539430000000     0.0420492  
H56      H      0.257270000000     0.169760000000     0.510360000000     0.0413653  
H57      H      0.338120000000     0.276380000000     0.487040000000     0.0438974  
H58      H      0.394020000000     0.278880000000     0.463530000000     0.0389931  
H59      H      0.280930000000     0.194040000000     0.591190000000     0.0402395  
H60      H      0.403880000000     0.198810000000     0.418900000000     0.154179   
H61      H      0.548770000000     0.482590000000     0.422180000000     0.0456823  
H62      H      0.573040000000     0.526590000000     0.521330000000     0.0411754  
H63      H      0.663210000000     0.504400000000     0.475970000000     0.0510492  
H64      H      0.490160000000     0.388020000000     0.445530000000     0.0423112  
H65      H      0.606310000000     0.569680000000     0.521640000000     0.0602323  
H66      H      0.586390000000     0.418050000000     0.412060000000     0.0405237  
H67      H      0.496520000000     0.437270000000     0.459120000000     0.0389155  
H68      H      0.551100000000     0.389490000000     0.377230000000     0.0486025  
H69      H      0.698470000000     0.532810000000     0.511580000000     0.0574878  
H70      H      0.580230000000     0.520780000000     0.446800000000     0.0594178  
H71      H      0.608540000000     0.554540000000     0.556530000000     0.0496763  
H72      H      0.579140000000     0.422930000000     0.487400000000     0.0487413  
H73      H      0.606420000000     0.506270000000     0.538500000000     0.0389038  
H74      H      0.461190000000     0.408700000000     0.424200000000     0.0455784  
H75      H      0.552100000000     0.437890000000     0.395520000000     0.0411668  
H76      H      0.500250000000     0.449020000000     0.422700000000     0.0403775  
H77      H      0.610420000000     0.461120000000     0.512090000000     0.0443724  
H78      H      0.658390000000     0.494240000000     0.512510000000     0.0381561  
H79      H      0.553860000000     0.374430000000     0.412260000000     0.0439398  
H80      H      0.637460000000     0.590340000000     0.454710000000     0.167692   
H81      H      0.804570000000     0.984090000000     0.171000000000     0.0461245  
H82      H      0.901970000000     0.971240000000     0.244450000000     0.0399585  
H83      H      0.814130000000     0.920830000000     0.262480000000     0.0458145  
H84      H      0.773510000000     0.088640000000     0.181480000000     0.0407537  
H85      H      0.922750000000     0.923020000000     0.250170000000     0.0562967  
H86      H      0.729270000000     0.008470000000     0.201410000000     0.0419304  
H87      H      0.820270000000     0.054640000000     0.182900000000     0.0390052  
H88      H      0.697130000000     0.036740000000     0.164820000000     0.056398   
H89      H      0.848200000000     0.894280000000     0.300190000000     0.0602911  
H90      H      0.839460000000     0.947660000000     0.194960000000     0.0511837  
H91      H      0.936220000000     0.943750000000     0.280220000000     0.0473754  
H92      H      0.792170000000     0.028660000000     0.250670000000     0.0485644  
H93      H      0.883790000000     0.971770000000     0.279770000000     0.039012   
H94      H      0.789000000000     0.083210000000     0.145870000000     0.0490345  
H95      H      0.747600000000     0.005880000000     0.166220000000     0.0446465  
H96      H      0.801170000000     0.033010000000     0.155340000000     0.0422044  
H97      H      0.826800000000     0.992070000000     0.274690000000     0.0440533  
H98      H      0.832570000000     0.942520000000     0.290010000000     0.0393727  
H99      H      0.712750000000     0.057800000000     0.194060000000     0.0422066  
H100     H      0.852280000000     0.895050000000     0.213410000000     0.154636   
H101     H      0.547740000000     0.272320000000     0.215750000000     0.0451146  
H102     H      0.650830000000     0.210850000000     0.184950000000     0.0401765  
H103     H      0.557410000000     0.184700000000     0.146440000000     0.045507   
H104     H      0.537460000000     0.252230000000     0.321740000000     0.0484914  
H105     H      0.661250000000     0.207500000000     0.134170000000     0.0572177  
H106     H      0.482200000000     0.234550000000     0.246400000000     0.0410563  
H107     H      0.578000000000     0.257120000000     0.282950000000     0.0400055  
H108     H      0.451630000000     0.266550000000     0.280860000000     0.0504012  
H109     H      0.590580000000     0.150580000000     0.114960000000     0.0644524  
H110     H      0.578260000000     0.253730000000     0.173930000000     0.051236   
H111     H      0.684240000000     0.179640000000     0.152080000000     0.0483196  
H112     H      0.554770000000     0.189650000000     0.255820000000     0.0509371  
H113     H      0.638470000000     0.173750000000     0.187040000000     0.0401184  
H114     H      0.548380000000     0.289310000000     0.317790000000     0.0515053  
H115     H      0.496130000000     0.271270000000     0.244600000000     0.0417226  
H116     H      0.552570000000     0.284570000000     0.266140000000     0.0416992  
H117     H      0.585350000000     0.171090000000     0.214090000000     0.0454152  
H118     H      0.583040000000     0.158590000000     0.164640000000     0.0412461  
H119     H      0.473700000000     0.237240000000     0.297420000000     0.049526   
H120     H      0.581140000000     0.236420000000     0.118090000000     0.154363   
H121     H      0.316440000000     0.022240000000     0.738470000000     0.0452272  
H122     H      0.320120000000     0.926300000000     0.794450000000     0.040908   
H123     H      0.408000000000     0.941680000000     0.743490000000     0.0462648  
H124     H      0.216180000000     0.009310000000     0.670570000000     0.0497047  
H125     H      0.367670000000     0.921370000000     0.826670000000     0.0562639  
H126     H      0.326100000000     0.012560000000     0.666560000000     0.0401913  
H127     H      0.237770000000     0.999700000000     0.717630000000     0.0410699  
H128     H      0.296330000000     0.052750000000     0.640950000000     0.048893   
H129     H      0.438520000000     0.900850000000     0.768560000000     0.0595539  
H130     H      0.351190000000     0.993950000000     0.771700000000     0.0505766  
H131     H      0.351080000000     0.886400000000     0.819620000000     0.0495195  
H132     H      0.294620000000     0.946220000000     0.689900000000     0.0501632  
H133     H      0.336040000000     0.898730000000     0.771130000000     0.0407481  
H134     H      0.207860000000     0.040110000000     0.692220000000     0.0513397  
H135     H      0.311400000000     0.040790000000     0.689660000000     0.0416802  
H136     H      0.260240000000     0.033330000000     0.719290000000     0.0413063  
H137     H      0.329550000000     0.917940000000     0.723060000000     0.0452471  
H138     H      0.386850000000     0.907690000000     0.742060000000     0.0402601  
H139     H      0.278070000000     0.018110000000     0.634800000000     0.0437366  
H140     H      0.408820000000     0.980380000000     0.796680000000     0.154946   
H141     H      0.594890000000     0.665920000000     0.720670000000     0.0447226  
H142     H      0.585780000000     0.753150000000     0.789140000000     0.0405867  
H143     H      0.498550000000     0.740990000000     0.736520000000     0.045662   
H144     H      0.691140000000     0.691560000000     0.652100000000     0.0419875  
H145     H      0.537430000000     0.752210000000     0.821170000000     0.0563352  
H146     H      0.581560000000     0.684630000000     0.651150000000     0.0409132  
H147     H      0.671700000000     0.694160000000     0.700760000000     0.0389016  
H148     H      0.611850000000     0.649510000000     0.619520000000     0.0520115  
H149     H      0.466260000000     0.777700000000     0.765920000000     0.0601317  
H150     H      0.559170000000     0.688100000000     0.757630000000     0.05033    
H151     H      0.553070000000     0.788140000000     0.819160000000     0.0501969  
H152     H      0.610970000000     0.748460000000     0.682180000000     0.0495867  
H153     H      0.568560000000     0.782900000000     0.769370000000     0.0409389  
H154     H      0.702340000000     0.658640000000     0.669340000000     0.0454614  
H155     H      0.598790000000     0.654190000000     0.669860000000     0.0413908  
H156     H      0.651050000000     0.659750000000     0.698750000000     0.0401237  
H157     H      0.575280000000     0.770650000000     0.719140000000     0.0451903  
H158     H      0.517990000000     0.775650000000     0.738890000000     0.0403552  
H159     H      0.628400000000     0.685230000000     0.617680000000     0.0458225  
H160     H      0.499230000000     0.696640000000     0.783250000000     0.154191   
H161     H      0.566140000000     0.913660000000     0.974890000000     0.0460138  
H162     H      0.659280000000     0.990700000000     0.992170000000     0.0436926  
H163     H      0.566580000000     0.006130000000     0.037000000000     0.0515639  
H164     H      0.533640000000     0.925410000000     0.870370000000     0.0530981  
H165     H      0.675480000000     0.998170000000     0.041290000000     0.0562856  
H166     H      0.489950000000     0.940110000000     0.952290000000     0.042017   
H167     H      0.580560000000     0.927650000000     0.903870000000     0.0416534  
H168     H      0.459740000000     0.902550000000     0.923430000000     0.0500221  
H169     H      0.596030000000     0.045570000000     0.064620000000     0.0641569  
H170     H      0.598630000000     0.938950000000     0.011940000000     0.0592802  
H171     H      0.689190000000     0.028360000000     0.020770000000     0.0532067  
H172     H      0.550380000000     0.993200000000     0.930480000000     0.0533974  
H173     H      0.639270000000     0.025380000000     0.989810000000     0.0469021  
H174     H      0.550760000000     0.890060000000     0.874670000000     0.0518574  
H175     H      0.510850000000     0.905720000000     0.952880000000     0.0421795  
H176     H      0.563660000000     0.898480000000     0.924690000000     0.0419654  
H177     H      0.583160000000     0.018420000000     0.967320000000     0.0493236  
H178     H      0.585130000000     0.034170000000     0.015980000000     0.0436784  
H179     H      0.471370000000     0.933920000000     0.903690000000     0.0503267  
H180     H      0.625100000000     0.956190000000     0.087820000000     0.160353   
H181     H      0.046910000000     0.726740000000     0.280610000000     0.0455425  
H182     H      0.070770000000     0.681870000000     0.181690000000     0.041801   
H183     H      0.160770000000     0.697080000000     0.230240000000     0.0462206  
H184     H      0.994300000000     0.822710000000     0.254870000000     0.0475811  
H185     H      0.101870000000     0.637210000000     0.182480000000     0.0579542  
H186     H      0.087660000000     0.790530000000     0.290910000000     0.0406912  
H187     H      0.998780000000     0.773110000000     0.241860000000     0.0421744  
H188     H      0.052400000000     0.820560000000     0.324460000000     0.0489834  
H189     H      0.195150000000     0.668650000000     0.194310000000     0.0716456  
H190     H      0.076300000000     0.686980000000     0.256760000000     0.0535625  
H191     H      0.104230000000     0.651960000000     0.147290000000     0.0506454  
H192     H      0.083490000000     0.784560000000     0.215920000000     0.0507595  
H193     H      0.106310000000     0.700560000000     0.165590000000     0.0421799  
H194     H      0.963340000000     0.803080000000     0.275270000000     0.0566368  
H195     H      0.052130000000     0.771780000000     0.306900000000     0.0418303  
H196     H      0.000630000000     0.761700000000     0.278500000000     0.0422374  
H197     H      0.112980000000     0.744840000000     0.192140000000     0.0473032  
H198     H      0.158610000000     0.709530000000     0.194140000000     0.0448754  
H199     H      0.056490000000     0.834920000000     0.289200000000     0.043236   
H200     H      0.129150000000     0.649790000000     0.257140000000     0.154645   
H201     H      0.336990000000     0.778560000000     0.977810000000     0.0456366  
H202     H      0.241110000000     0.707260000000     0.006360000000     0.0405564  
H203     H      0.331490000000     0.699730000000     0.056240000000     0.0453047  
H204     H      0.373260000000     0.747670000000     0.878300000000     0.049747   
H205     H      0.223360000000     0.708620000000     0.055800000000     0.0570955  
H206     H      0.413430000000     0.746870000000     0.962100000000     0.0408462  
H207     H      0.324640000000     0.751890000000     0.910100000000     0.0406247  
H208     H      0.445630000000     0.778120000000     0.927950000000     0.0495811  
H209     H      0.300500000000     0.665520000000     0.089070000000     0.063675   
H210     H      0.302490000000     0.761030000000     0.017930000000     0.0514777  
H211     H      0.209200000000     0.675760000000     0.040140000000     0.0481749  
H212     H      0.352150000000     0.691950000000     0.949200000000     0.0505892  
H213     H      0.260560000000     0.672550000000     0.010610000000     0.0401619  
H214     H      0.356110000000     0.783180000000     0.875450000000     0.0522546  
H215     H      0.393490000000     0.781190000000     0.956450000000     0.0422683  
H216     H      0.341350000000     0.784120000000     0.925940000000     0.042151   
H217     H      0.317460000000     0.674450000000     0.989140000000     0.044895   
H218     H      0.314000000000     0.668360000000     0.039730000000     0.040244   
H219     H      0.432900000000     0.744320000000     0.913270000000     0.0464257  
H220     H      0.293580000000     0.750520000000     0.074730000000     0.154749   
H221     H      0.374520000000     0.482840000000     0.267160000000     0.0452702  
H222     H      0.339900000000     0.518960000000     0.164910000000     0.0413824  
H223     H      0.259540000000     0.516490000000     0.225740000000     0.0455506  
H224     H      0.408860000000     0.379240000000     0.253140000000     0.0415128  
H225     H      0.315570000000     0.566260000000     0.164270000000     0.0593434  
H226     H      0.324220000000     0.426180000000     0.288040000000     0.0399009  
H227     H      0.410970000000     0.426770000000     0.233610000000     0.0393336  
H228     H      0.356960000000     0.396970000000     0.323880000000     0.0476917  
H229     H      0.222220000000     0.545320000000     0.192200000000     0.0652974  
H230     H      0.347630000000     0.522280000000     0.240950000000     0.0530289  
H231     H      0.302920000000     0.548480000000     0.132140000000     0.0481691  
H232     H      0.321740000000     0.422160000000     0.213770000000     0.0488218  
H233     H      0.299530000000     0.502480000000     0.155850000000     0.0390553  
H234     H      0.444050000000     0.397680000000     0.269510000000     0.0457911  
H235     H      0.363560000000     0.442600000000     0.299900000000     0.0410618  
H236     H      0.413830000000     0.442970000000     0.268350000000     0.0405035  
H237     H      0.294620000000     0.461640000000     0.187680000000     0.0444156  
H238     H      0.253180000000     0.501310000000     0.191060000000     0.0394199  
H239     H      0.348010000000     0.378810000000     0.291080000000     0.0424743  
H240     H      0.304530000000     0.564620000000     0.242180000000     0.15531    
H241     H      0.070050000000     0.178920000000     0.740210000000     0.0459883  
H242     H      0.069170000000     0.269330000000     0.802280000000     0.0430536  
H243     H      0.980000000000     0.261990000000     0.751030000000     0.0497011  
H244     H      0.173510000000     0.196480000000     0.676440000000     0.0398714  
H245     H      0.021810000000     0.273600000000     0.834900000000     0.0599952  
H246     H      0.063670000000     0.192310000000     0.669070000000     0.0400719  
H247     H      0.149700000000     0.203090000000     0.723210000000     0.0395     
H248     H      0.095170000000     0.153840000000     0.642150000000     0.049437   
H249     H      0.952330000000     0.302030000000     0.779460000000     0.057027   
H250     H      0.035030000000     0.205440000000     0.774740000000     0.0595188  
H251     H      0.041200000000     0.308070000000     0.830960000000     0.056939   
H252     H      0.094360000000     0.257700000000     0.697140000000     0.0482179  
H253     H      0.054950000000     0.299420000000     0.781390000000     0.0409621  
H254     H      0.181230000000     0.164450000000     0.696400000000     0.0469406  
H255     H      0.077990000000     0.162980000000     0.690940000000     0.0427994  
H256     H      0.127690000000     0.169230000000     0.722260000000     0.0419153  
H257     H      0.059300000000     0.284200000000     0.731620000000     0.0448499  
H258     H      0.003290000000     0.295030000000     0.751930000000     0.0381469  
H259     H      0.112800000000     0.189020000000     0.638250000000     0.0406249  
H260     H      0.960760000000     0.217590000000     0.823550000000     0.159628   
H261     H      0.832080000000     0.231480000000     0.918370000000     0.0483553  
H262     H      0.821540000000     0.160270000000     0.003460000000     0.0413206  
H263     H      0.729110000000     0.203340000000     0.982360000000     0.0469799  
H264     H      0.918430000000     0.303700000000     0.954830000000     0.043986   
H265     H      0.777570000000     0.124000000000     0.998730000000     0.0586855  
H266     H      0.811710000000     0.300790000000     0.937420000000     0.0413725  
H267     H      0.902410000000     0.253790000000     0.954700000000     0.0414958  
H268     H      0.845010000000     0.334430000000     0.906230000000     0.0516733  
H269     H      0.696860000000     0.171480000000     0.016580000000     0.0682587  
H270     H      0.798370000000     0.191000000000     0.936380000000     0.0523466  
H271     H      0.789560000000     0.126930000000     0.035430000000     0.0510228  
H272     H      0.833080000000     0.268560000000     0.002380000000     0.0497625  
H273     H      0.798090000000     0.178330000000     0.031260000000     0.0407517  
H274     H      0.936410000000     0.287040000000     0.923790000000     0.0550528  
H275     H      0.833640000000     0.283220000000     0.908480000000     0.0456195  
H276     H      0.886840000000     0.255770000000     0.918580000000     0.0470824  
H277     H      0.799070000000     0.228310000000     0.020320000000     0.0454072  
H278     H      0.743880000000     0.203960000000     0.018550000000     0.0425831  
H279     H      0.857230000000     0.335470000000     0.943090000000     0.0434482  
H280     H      0.741530000000     0.158420000000     0.939910000000     0.155118   
H281     H      0.798170000000     0.529150000000     0.729990000000     0.0447953  
H282     H      0.818330000000     0.431080000000     0.777310000000     0.0412462  
H283     H      0.910550000000     0.477040000000     0.763140000000     0.0497147  
H284     H      0.751420000000     0.503340000000     0.631940000000     0.0404228  
H285     H      0.846760000000     0.432150000000     0.822840000000     0.0566708  
H286     H      0.842360000000     0.538940000000     0.668310000000     0.0398342  
H287     H      0.752360000000     0.489810000000     0.681490000000     0.0387468  
H288     H      0.809370000000     0.572730000000     0.636950000000     0.0481554  
H289     H      0.942340000000     0.441370000000     0.794180000000     0.0583462  
H290     H      0.825440000000     0.505590000000     0.770880000000     0.0584612  
H291     H      0.849620000000     0.396600000000     0.808960000000     0.0507149  
H292     H      0.836880000000     0.463220000000     0.674530000000     0.0484147  
H293     H      0.854160000000     0.413670000000     0.760320000000     0.0403748  
H294     H      0.718950000000     0.523440000000     0.650170000000     0.0454122  
H295     H      0.805810000000     0.555070000000     0.685520000000     0.0412888  
H296     H      0.753490000000     0.526480000000     0.693210000000     0.0405429  
H297     H      0.863980000000     0.439590000000     0.715440000000     0.0447798  
H298     H      0.907480000000     0.440380000000     0.752340000000     0.0383523  
H299     H      0.813690000000     0.537290000000     0.622840000000     0.041691   
H300     H      0.874110000000     0.502820000000     0.840170000000     0.159414   
H301     H      0.117920000000     0.468710000000     0.024810000000     0.0448333  
H302     H      0.002160000000     0.448470000000     0.976140000000     0.0410269  
H303     H      0.086430000000     0.441080000000     0.919560000000     0.0471831  
H304     H      0.104650000000     0.573590000000     0.051990000000     0.043598   
H305     H      0.995940000000     0.401660000000     0.955950000000     0.0556024  
H306     H      0.164710000000     0.521720000000     0.995010000000     0.0398138  
H307     H      0.075420000000     0.528830000000     0.046000000000     0.0398378  
H308     H      0.199280000000     0.546110000000     0.033620000000     0.0456576  
H309     H      0.047300000000     0.416880000000     0.883590000000     0.0623303  
H310     H      0.087170000000     0.433360000000     0.995840000000     0.0502416  
H311     H      0.963910000000     0.424120000000     0.940280000000     0.0504606  
H312     H      0.078870000000     0.536260000000     0.971480000000     0.0496864  
H313     H      0.000820000000     0.465650000000     0.941810000000     0.0436794  
H314     H      0.109920000000     0.553460000000     0.084170000000     0.049544   
H315     H      0.163040000000     0.504320000000     0.029220000000     0.0404351  
H316     H      0.111660000000     0.508530000000     0.058650000000     0.0408207  
H317     H      0.048050000000     0.500880000000     0.942530000000     0.0468096  
H318     H      0.049070000000     0.460920000000     0.909290000000     0.0431395  
H319     H      0.168630000000     0.568430000000     0.015870000000     0.0419553  
H320     H      0.083590000000     0.389480000000     0.961470000000     0.154699   
In1      In     0.946780000000     0.364170000000     0.859820000000     2.42249    
In2      In     0.206020000000     0.608160000000     0.114310000000     2.42367    
In3      In     0.452500000000     0.837310000000     0.846780000000     2.43153    
In4      In     0.691700000000     0.102330000000     0.088800000000     2.43237    
In5      In     0.450570000000     0.338190000000     0.351480000000     2.41778    
In6      In     0.710360000000     0.601400000000     0.585750000000     2.40954    
In7      In     0.951290000000     0.871540000000     0.348890000000     2.4147     
In8      In     0.196960000000     0.105270000000     0.615000000000     2.4225     
N1       N      0.149100000000     0.048860000000     0.562610000000    -0.161452   
N2       N      0.113890000000     0.014140000000     0.523260000000    -0.105277   
N3       N      0.033430000000     0.971190000000     0.431380000000    -0.112681   
N4       N      0.997490000000     0.935120000000     0.393800000000    -0.168      
N5       N      0.758040000000     0.654920000000     0.529930000000    -0.15999    
N6       N      0.793080000000     0.693530000000     0.494220000000    -0.111773   
N7       N      0.874440000000     0.782910000000     0.446700000000    -0.112377   
N8       N      0.907780000000     0.821280000000     0.409670000000    -0.167247   
N9       N      0.400800000000     0.282450000000     0.403420000000    -0.161091   
N10      N      0.364960000000     0.246990000000     0.441740000000    -0.109906   
N11      N      0.285000000000     0.202060000000     0.533010000000    -0.112664   
N12      N      0.247620000000     0.165880000000     0.569520000000    -0.167523   
N13      N      0.654710000000     0.551820000000     0.531560000000    -0.16022    
N14      N      0.615820000000     0.516900000000     0.494890000000    -0.105556   
N15      N      0.543860000000     0.426700000000     0.439170000000    -0.11204    
N16      N      0.505190000000     0.391690000000     0.402490000000    -0.167084   
N17      N      0.896190000000     0.912990000000     0.288130000000    -0.161297   
N18      N      0.857190000000     0.945700000000     0.249530000000    -0.109775   
N19      N      0.775940000000     0.031430000000     0.195820000000    -0.112605   
N20      N      0.739860000000     0.064540000000     0.155700000000    -0.166579   
N21      N      0.639760000000     0.166450000000     0.128060000000    -0.16003    
N22      N      0.602500000000     0.201230000000     0.166130000000    -0.109844   
N23      N      0.531620000000     0.242340000000     0.264080000000    -0.111829   
N24      N      0.497680000000     0.277150000000     0.304000000000    -0.164564   
N25      N      0.399890000000     0.896140000000     0.800600000000    -0.160521   
N26      N      0.363730000000     0.938180000000     0.769900000000    -0.109766   
N27      N      0.282340000000     0.002040000000     0.691570000000    -0.111923   
N28      N      0.247530000000     0.044770000000     0.660760000000    -0.165736   
N29      N      0.504860000000     0.780090000000     0.798280000000    -0.16034    
N30      N      0.542890000000     0.742990000000     0.763000000000    -0.109905   
N31      N      0.625960000000     0.693450000000     0.676040000000    -0.112104   
N32      N      0.661200000000     0.656350000000     0.638950000000    -0.165963   
N33      N      0.646130000000     0.035450000000     0.048660000000    -0.159581   
N34      N      0.612200000000     0.994510000000     0.014820000000    -0.10454    
N35      N      0.535970000000     0.937820000000     0.927980000000    -0.110994   
N36      N      0.501410000000     0.897730000000     0.893730000000    -0.164228   
N37      N      0.150780000000     0.653600000000     0.171930000000    -0.15812    
N38      N      0.113270000000     0.688890000000     0.209270000000    -0.108732   
N39      N      0.045770000000     0.782550000000     0.262940000000    -0.11191    
N40      N      0.007120000000     0.818760000000     0.298380000000    -0.16514    
N41      N      0.251340000000     0.672500000000     0.069730000000    -0.161079   
N42      N      0.287260000000     0.707130000000     0.030580000000    -0.109836   
N43      N      0.368040000000     0.745710000000     0.936890000000    -0.111792   
N44      N      0.404470000000     0.779230000000     0.897320000000    -0.165113   
N45      N      0.263170000000     0.554640000000     0.163250000000    -0.160593   
N46      N      0.303030000000     0.518780000000     0.198310000000    -0.108811   
N47      N      0.364670000000     0.425660000000     0.257580000000    -0.112171   
N48      N      0.400090000000     0.390210000000     0.296140000000    -0.168151   
N49      N      0.991770000000     0.302730000000     0.811180000000    -0.160813   
N50      N      0.024740000000     0.261490000000     0.777110000000    -0.10511    
N51      N      0.106310000000     0.201860000000     0.695730000000    -0.112223   
N52      N      0.143100000000     0.161470000000     0.663480000000    -0.167328   
N53      N      0.739910000000     0.143980000000     0.024310000000    -0.159181   
N54      N      0.776820000000     0.182230000000     0.989380000000    -0.109616   
N55      N      0.855700000000     0.276820000000     0.949720000000    -0.111999   
N56      N      0.893840000000     0.315550000000     0.916550000000    -0.164676   
N57      N      0.896550000000     0.420860000000     0.808940000000    -0.160703   
N58      N      0.861970000000     0.457650000000     0.770940000000    -0.105253   
N59      N      0.799960000000     0.510960000000     0.674500000000    -0.11223    
N60      N      0.763600000000     0.547000000000     0.637010000000    -0.168011   
N61      N      0.005650000000     0.412060000000     0.912900000000    -0.159485   
N62      N      0.047160000000     0.442980000000     0.951070000000    -0.1098     
N63      N      0.117440000000     0.526750000000     0.017140000000    -0.11204    
N64      N      0.154870000000     0.557740000000     0.058040000000    -0.167028   
O1       O      0.946860000000     0.332960000000     0.822180000000    -0.498763   
O2       O      0.992020000000     0.336110000000     0.847180000000    -0.485673   
O3       O      0.897870000000     0.352270000000     0.883960000000    -0.484558   
O4       O      0.954440000000     0.391120000000     0.899850000000    -0.500805   
O5       O      0.898770000000     0.380820000000     0.837490000000    -0.489814   
O6       O      0.996120000000     0.387910000000     0.870860000000    -0.480887   
O7       O      0.942590000000     0.327450000000     0.891490000000    -0.493935   
O8       O      0.945460000000     0.403050000000     0.830260000000    -0.496918   
O9       O      0.251270000000     0.637510000000     0.104290000000    -0.489128   
O10      O      0.205740000000     0.642900000000     0.080130000000    -0.508533   
O11      O      0.158820000000     0.583450000000     0.099720000000    -0.493326   
O12      O      0.254470000000     0.581810000000     0.122870000000    -0.49335    
O13      O      0.201580000000     0.636210000000     0.153760000000    -0.478426   
O14      O      0.213080000000     0.578180000000     0.152030000000    -0.49123    
O15      O      0.203760000000     0.580250000000     0.074330000000    -0.50591    
O16      O      0.155910000000     0.627210000000     0.130690000000    -0.486578   
O17      O      0.447610000000     0.868420000000     0.809620000000    -0.496041   
O18      O      0.403780000000     0.861930000000     0.835780000000    -0.49479    
O19      O      0.450340000000     0.807970000000     0.885510000000    -0.504706   
O20      O      0.457030000000     0.807210000000     0.808700000000    -0.496689   
O21      O      0.499670000000     0.863860000000     0.858120000000    -0.490361   
O22      O      0.500640000000     0.812090000000     0.835430000000    -0.495939   
O23      O      0.406410000000     0.809690000000     0.858770000000    -0.492128   
O24      O      0.454890000000     0.869180000000     0.883400000000    -0.503232   
O25      O      0.692300000000     0.133250000000     0.051370000000    -0.494846   
O26      O      0.739070000000     0.112480000000     0.062100000000    -0.492475   
O27      O      0.642710000000     0.127250000000     0.098370000000    -0.48287    
O28      O      0.645480000000     0.074110000000     0.079080000000    -0.482937   
O29      O      0.738810000000     0.094480000000     0.116710000000    -0.494168   
O30      O      0.692410000000     0.064650000000     0.058030000000    -0.50257    
O31      O      0.688960000000     0.141090000000     0.118000000000    -0.510464   
O32      O      0.693030000000     0.072020000000     0.126760000000    -0.502148   
O33      O      0.402430000000     0.314780000000     0.366390000000    -0.493552   
O34      O      0.448630000000     0.307740000000     0.389340000000    -0.498852   
O35      O      0.450110000000     0.302610000000     0.318320000000    -0.501037   
O36      O      0.447840000000     0.365220000000     0.310990000000    -0.509537   
O37      O      0.454800000000     0.370250000000     0.388050000000    -0.506675   
O38      O      0.404210000000     0.364810000000     0.338040000000    -0.499061   
O39      O      0.498070000000     0.313880000000     0.336700000000    -0.488005   
O40      O      0.499830000000     0.361200000000     0.364210000000    -0.494223   
O41      O      0.660360000000     0.580650000000     0.571110000000    -0.486968   
O42      O      0.705530000000     0.571200000000     0.547700000000    -0.491562   
O43      O      0.708860000000     0.630710000000     0.624770000000    -0.503292   
O44      O      0.759040000000     0.587160000000     0.608810000000    -0.497831   
O45      O      0.713600000000     0.642630000000     0.559870000000    -0.494764   
O46      O      0.714020000000     0.562310000000     0.614870000000    -0.510233   
O47      O      0.662930000000     0.625290000000     0.600930000000    -0.484583   
O48      O      0.755360000000     0.613760000000     0.556900000000    -0.487561   
O49      O      0.952090000000     0.833630000000     0.379550000000    -0.507676   
O50      O      0.906830000000     0.858860000000     0.377930000000    -0.492539   
O51      O      0.997180000000     0.900010000000     0.359400000000    -0.492807   
O52      O      0.001110000000     0.849130000000     0.336710000000    -0.489626   
O53      O      0.901850000000     0.879540000000     0.323930000000    -0.484939   
O54      O      0.956380000000     0.839710000000     0.312470000000    -0.495068   
O55      O      0.951710000000     0.905700000000     0.383610000000    -0.50872    
O56      O      0.945020000000     0.905680000000     0.314770000000    -0.509599   
O57      O      0.244500000000     0.131990000000     0.605080000000    -0.496187   
O58      O      0.200410000000     0.137820000000     0.579060000000    -0.506993   
O59      O      0.200420000000     0.073120000000     0.651500000000    -0.497539   
O60      O      0.148260000000     0.129720000000     0.626250000000    -0.496943   
O61      O      0.194900000000     0.077340000000     0.575260000000    -0.504917   
O62      O      0.191390000000     0.134770000000     0.653490000000    -0.506023   
O63      O      0.244660000000     0.079200000000     0.625760000000    -0.496729   
O64      O      0.150790000000     0.078440000000     0.601830000000    -0.488452   
O65      O      0.134420000000     0.978830000000     0.572330000000    -0.27548    
O66      O      0.081900000000     0.997610000000     0.605640000000    -0.179169   
O67      O      0.147020000000     0.012890000000     0.618120000000    -0.174733   
O68      O      0.734850000000     0.656400000000     0.464680000000    -0.258793   
O69      O      0.695720000000     0.702770000000     0.477860000000    -0.179453   
O70      O      0.681290000000     0.651890000000     0.501430000000    -0.149806   
O71      O      0.405850000000     0.210940000000     0.401710000000    -0.269503   
O72      O      0.465140000000     0.219300000000     0.431350000000    -0.181956   
O73      O      0.457760000000     0.242400000000     0.379240000000    -0.166171   
O74      O      0.633870000000     0.575570000000     0.469500000000    -0.271879   
O75      O      0.691320000000     0.549210000000     0.449640000000    -0.176109   
O76      O      0.697190000000     0.591880000000     0.487890000000    -0.15225    
O77      O      0.874050000000     0.889670000000     0.222870000000    -0.269232   
O78      O      0.823920000000     0.861220000000     0.251740000000    -0.1795     
O79      O      0.890280000000     0.851300000000     0.264080000000    -0.157789   
O80      O      0.603380000000     0.230220000000     0.109980000000    -0.268446   
O81      O      0.555900000000     0.195630000000     0.084940000000    -0.17596    
O82      O      0.622280000000     0.191810000000     0.069560000000    -0.155459   
O83      O      0.412050000000     0.965530000000     0.811440000000    -0.270127   
O84      O      0.465370000000     0.959400000000     0.774370000000    -0.181692   
O85      O      0.464710000000     0.929470000000     0.823250000000    -0.16818    
O86      O      0.495780000000     0.708960000000     0.800150000000    -0.269651   
O87      O      0.440710000000     0.719010000000     0.765790000000    -0.181343   
O88      O      0.443140000000     0.742450000000     0.818060000000    -0.166972   
O89      O      0.625660000000     0.969280000000     0.071270000000    -0.27466    
O90      O      0.572580000000     0.996770000000     0.097120000000    -0.176249   
O91      O      0.637820000000     0.011640000000     0.109680000000    -0.169387   
O92      O      0.127140000000     0.636300000000     0.240990000000    -0.267608   
O93      O      0.195890000000     0.643060000000     0.249240000000    -0.163737   
O94      O      0.172980000000     0.605150000000     0.210590000000    -0.144579   
O95      O      0.271890000000     0.742100000000     0.081800000000    -0.268743   
O96      O      0.321770000000     0.718430000000     0.114930000000    -0.175757   
O97      O      0.255380000000     0.706720000000     0.125560000000    -0.159051   
O98      O      0.302890000000     0.575860000000     0.224380000000    -0.265953   
O99      O      0.237950000000     0.572500000000     0.245710000000    -0.165567   
O100     O      0.251350000000     0.607290000000     0.201490000000    -0.141265   
O101     O      0.975650000000     0.232740000000     0.815560000000    -0.27422    
O102     O      0.921030000000     0.245360000000     0.781710000000    -0.179948   
O103     O      0.926950000000     0.270430000000     0.833260000000    -0.174554   
O104     O      0.740780000000     0.141010000000     0.951870000000    -0.268173   
O105     O      0.677610000000     0.165270000000     0.957750000000    -0.174722   
O106     O      0.690790000000     0.114490000000     0.982300000000    -0.161102   
O107     O      0.872610000000     0.487070000000     0.826160000000    -0.27508    
O108     O      0.938590000000     0.500840000000     0.812980000000    -0.180435   
O109     O      0.925830000000     0.462660000000     0.854750000000    -0.175604   
O110     O      0.062600000000     0.380110000000     0.954130000000    -0.269226   
O111     O      0.105770000000     0.385320000000     0.908750000000    -0.180919   
O112     O      0.047670000000     0.354750000000     0.903650000000    -0.156893   
S1       S      0.119670000000     0.006230000000     0.591960000000     0.288414   
S2       S      0.712790000000     0.672990000000     0.490620000000     0.292528   
S3       S      0.437440000000     0.234250000000     0.409130000000     0.289328   
S4       S      0.673520000000     0.564270000000     0.477920000000     0.291994   
S5       S      0.862300000000     0.876160000000     0.254570000000     0.289192   
S6       S      0.595940000000     0.197450000000     0.096640000000     0.289123   
S7       S      0.440410000000     0.942420000000     0.797370000000     0.289777   
S8       S      0.466420000000     0.733250000000     0.790030000000     0.289244   
S9       S      0.611740000000     0.000760000000     0.084030000000     0.28843    
S10      S      0.165810000000     0.636820000000     0.225110000000     0.294808   
S11      S      0.283810000000     0.712840000000     0.100080000000     0.289274   
S12      S      0.260870000000     0.576150000000     0.216230000000     0.295274   
S13      S      0.948430000000     0.258580000000     0.805220000000     0.289693   
S14      S      0.707380000000     0.145970000000     0.973990000000     0.290588   
S15      S      0.912930000000     0.474630000000     0.823350000000     0.289253   
S16      S      0.064990000000     0.383390000000     0.918540000000     0.289641   


