data_structure

_audit_creation_method RASPA-1.0
_audit_creation_date 2023-6-5
_audit_author_name 'Poobodin Mano'

_cell_length_a    55.8568
_cell_length_b    56.2088
_cell_length_c    29.4365
_cell_angle_alpha 89.7786
_cell_angle_beta  90.2214
_cell_angle_gamma 89.9997
_cell_volume      92418.7

_symmetry_cell_setting          triclinic
_symmetry_space_group_name_Hall 'P 1'
_symmetry_space_group_name_H-M  'P 1'
_symmetry_Int_Tables_number     1

_symmetry_equiv_pos_as_xyz 'x,y,z'

loop_
_atom_site_label
_atom_site_type_symbol
_atom_site_fract_x
_atom_site_fract_y
_atom_site_fract_z
_atom_site_charge
C1       C      0.314960000000     0.379200000000     0.018710000000     0.429201   
C2       C      0.299910000000     0.304720000000     0.958390000000     0.406678   
C3       C      0.371950000000     0.333830000000     0.007310000000     0.40453    
C4       C      0.307360000000     0.311650000000     0.095580000000     0.42642    
C5       C      0.334730000000     0.625510000000     0.005390000000     0.404473   
C6       C      0.309430000000     0.696900000000     0.063290000000     0.403975   
C7       C      0.383760000000     0.678310000000     0.007420000000     0.427579   
C8       C      0.315460000000     0.691880000000     0.925150000000     0.427401   
C9       C      0.619270000000     0.315530000000     0.991030000000     0.430254   
C10      C      0.692320000000     0.300740000000     0.936680000000     0.429335   
C11      C      0.664970000000     0.372270000000     0.001740000000     0.429293   
C12      C      0.688280000000     0.307550000000     0.076670000000     0.404895   
C13      C      0.684810000000     0.619620000000     0.011430000000     0.405277   
C14      C      0.699970000000     0.685470000000     0.930730000000     0.401592   
C15      C      0.633350000000     0.674300000000     0.014260000000     0.402757   
C16      C      0.706410000000     0.693110000000     0.069670000000     0.408833   
C17      C      0.829240000000     0.124690000000     0.501000000000     0.430448   
C18      C      0.806400000000     0.196560000000     0.566140000000     0.406488   
C19      C      0.879350000000     0.178430000000     0.509060000000     0.403871   
C20      C      0.810670000000     0.192100000000     0.427260000000     0.42874    
C21      C      0.878980000000     0.815620000000     0.498230000000     0.42748    
C22      C      0.811380000000     0.811950000000     0.584540000000     0.426594   
C23      C      0.836470000000     0.876220000000     0.507260000000     0.408015   
C24      C      0.804400000000     0.806350000000     0.445830000000     0.438642   
C25      C      0.127120000000     0.823760000000     0.492040000000     0.4046     
C26      C      0.200590000000     0.800760000000     0.437680000000     0.428994   
C27      C      0.178590000000     0.874290000000     0.490960000000     0.427116   
C28      C      0.194210000000     0.808930000000     0.576020000000     0.402759   
C29      C      0.128710000000     0.168750000000     0.516460000000     0.428272   
C30      C      0.193360000000     0.185600000000     0.597750000000     0.426752   
C31      C      0.184810000000     0.121040000000     0.501990000000     0.402969   
C32      C      0.202960000000     0.195290000000     0.461380000000     0.406886   
C33      C      0.184320000000     0.935120000000     0.439950000000    -0.0370508  
C34      C      0.189120000000     0.056960000000     0.526030000000    -0.030178   
C35      C      0.190140000000     0.088420000000     0.447050000000    -0.0053002  
C36      C      0.198650000000     0.082270000000     0.530980000000    -0.00557676 
C37      C      0.165480000000     0.013990000000     0.480600000000    -0.0540753  
C38      C      0.204190000000     0.982860000000     0.470810000000    -0.0530802  
C39      C      0.188810000000     0.023170000000     0.476060000000     0.0642668  
C40      C      0.181170000000     0.062690000000     0.445430000000    -0.0304219  
C41      C      0.180900000000     0.973670000000     0.476020000000     0.0632957  
C42      C      0.186900000000     0.938460000000     0.521630000000    -0.12186    
C43      C      0.161640000000     0.989430000000     0.480450000000    -0.0509089  
C44      C      0.177710000000     0.913150000000     0.529230000000     0.328504   
C45      C      0.174830000000     0.909630000000     0.442560000000     0.00243977 
C46      C      0.208020000000     0.007420000000     0.470750000000    -0.0509202  
C47      C      0.942430000000     0.813170000000     0.528760000000    -0.0367962  
C48      C      0.065920000000     0.813560000000     0.445040000000    -0.0306907  
C49      C      0.088380000000     0.829290000000     0.529490000000    -0.00425361 
C50      C      0.091200000000     0.824030000000     0.443540000000    -0.00451494 
C51      C      0.018900000000     0.795100000000     0.484510000000    -0.0540739  
C52      C      0.986220000000     0.832730000000     0.479090000000    -0.0532424  
C53      C      0.027300000000     0.818660000000     0.481090000000     0.0640414  
C54      C      0.063370000000     0.818410000000     0.526630000000    -0.0306548  
C55      C      0.977780000000     0.809180000000     0.482860000000     0.0634243  
C56      C      0.938860000000     0.811840000000     0.446360000000    -0.121124   
C57      C      0.994320000000     0.790480000000     0.485300000000    -0.0508447  
C58      C      0.912940000000     0.802990000000     0.449210000000     0.327827   
C59      C      0.916910000000     0.803980000000     0.534740000000     0.000356557
C60      C      0.010780000000     0.837330000000     0.478140000000    -0.0512765  
C61      C      0.830350000000     0.062240000000     0.543240000000    -0.0364787  
C62      C      0.836230000000     0.938310000000     0.464160000000    -0.0306747  
C63      C      0.841010000000     0.913250000000     0.550730000000    -0.00388826 
C64      C      0.845930000000     0.912840000000     0.464840000000    -0.00464234 
C65      C      0.814170000000     0.984440000000     0.499490000000    -0.0532578  
C66      C      0.852530000000     0.016120000000     0.508220000000    -0.052955   
C67      C      0.837580000000     0.975570000000     0.505100000000     0.0644678  
C68      C      0.831450000000     0.938640000000     0.546070000000    -0.0309182  
C69      C      0.829130000000     0.025010000000     0.502440000000     0.0639359  
C70      C      0.835820000000     0.061870000000     0.461690000000    -0.120775   
C71      C      0.810070000000     0.008970000000     0.498140000000    -0.0496825  
C72      C      0.826780000000     0.087460000000     0.456560000000     0.327862   
C73      C      0.820710000000     0.087700000000     0.542390000000     0.00123344 
C74      C      0.856630000000     0.991600000000     0.509500000000    -0.0508856  
C75      C      0.064820000000     0.165150000000     0.555320000000    -0.0368656  
C76      C      0.941390000000     0.174680000000     0.554870000000    -0.031032   
C77      C      0.916830000000     0.191070000000     0.472810000000    -0.00452836 
C78      C      0.915070000000     0.182140000000     0.557730000000    -0.00424711 
C79      C      0.993230000000     0.205610000000     0.528380000000    -0.0518541  
C80      C      0.015170000000     0.161760000000     0.511870000000    -0.0529505  
C81      C      0.979040000000     0.185590000000     0.519840000000     0.0636679  
C82      C      0.942990000000     0.183110000000     0.474100000000    -0.0308513  
C83      C      0.029360000000     0.182000000000     0.520300000000     0.0630629  
C84      C      0.064930000000     0.174960000000     0.475530000000    -0.121068   
C85      C      0.018170000000     0.203830000000     0.528630000000    -0.0514815  
C86      C      0.091970000000     0.179490000000     0.474930000000     0.32798    
C87      C      0.091720000000     0.169330000000     0.560380000000     0.00334825 
C88      C      0.990180000000     0.163530000000     0.511720000000    -0.0537541  
C89      C      0.800570000000     0.771110000000     0.680220000000    -0.0367053  
C90      C      0.708200000000     0.727210000000     0.835560000000    -0.030916   
C91      C      0.733070000000     0.686520000000     0.875530000000    -0.00485359 
C92      C      0.693840000000     0.707660000000     0.859280000000    -0.00496697 
C93      C      0.752220000000     0.755010000000     0.803680000000    -0.0540924  
C94      C      0.755980000000     0.744450000000     0.711190000000    -0.0535843  
C95      C      0.742260000000     0.733780000000     0.786750000000     0.0634243  
C96      C      0.745840000000     0.706890000000     0.850960000000    -0.0309781  
C97      C      0.766080000000     0.765610000000     0.728150000000     0.0634216  
C98      C      0.763650000000     0.792320000000     0.663480000000    -0.120937   
C99      C      0.764030000000     0.770730000000     0.774500000000    -0.0513795  
C100     C      0.777110000000     0.812100000000     0.638250000000     0.327978   
C101     C      0.815610000000     0.790100000000     0.656560000000     0.00078761 
C102     C      0.744190000000     0.728720000000     0.740370000000    -0.0513499  
C103     C      0.787720000000     0.761080000000     0.361580000000    -0.037107   
C104     C      0.719220000000     0.740640000000     0.151990000000    -0.0309456  
C105     C      0.739640000000     0.695100000000     0.124940000000    -0.00481841 
C106     C      0.716280000000     0.732100000000     0.102990000000    -0.0046378  
C107     C      0.732370000000     0.738860000000     0.252810000000    -0.0536804  
C108     C      0.774720000000     0.765120000000     0.260810000000    -0.0533798  
C109     C      0.747320000000     0.741760000000     0.214760000000     0.0634258  
C110     C      0.741600000000     0.705130000000     0.173060000000    -0.0308707  
C111     C      0.759780000000     0.762230000000     0.298890000000     0.0642071  
C112     C      0.767690000000     0.798110000000     0.341890000000    -0.121159   
C113     C      0.738610000000     0.749060000000     0.294450000000    -0.051311   
C114     C      0.770710000000     0.807730000000     0.390250000000     0.329693   
C115     C      0.791190000000     0.768910000000     0.410800000000     0.00233862 
C116     C      0.768450000000     0.754970000000     0.219160000000    -0.050291   
C117     C      0.735200000000     0.291570000000     0.842480000000    -0.0367975  
C118     C      0.763990000000     0.207120000000     0.660320000000    -0.0304151  
C119     C      0.800760000000     0.233170000000     0.610550000000    -0.00501545 
C120     C      0.769540000000     0.200250000000     0.611230000000    -0.00552437 
C121     C      0.769020000000     0.232770000000     0.751620000000    -0.0540517  
C122     C      0.731800000000     0.266090000000     0.751330000000    -0.0532015  
C123     C      0.759600000000     0.241030000000     0.709990000000     0.0636589  
C124     C      0.793780000000     0.238570000000     0.659670000000    -0.0306003  
C125     C      0.741200000000     0.257840000000     0.792990000000     0.0631801  
C126     C      0.706890000000     0.258880000000     0.842830000000    -0.1211     
C127     C      0.759850000000     0.241170000000     0.792680000000    -0.0511165  
C128     C      0.699160000000     0.264170000000     0.891630000000     0.327912   
C129     C      0.729070000000     0.298300000000     0.891360000000     0.00101037 
C130     C      0.740990000000     0.257720000000     0.710290000000    -0.0509415  
C131     C      0.796220000000     0.237260000000     0.339280000000    -0.0365491  
C132     C      0.704650000000     0.265280000000     0.167870000000    -0.0298321  
C133     C      0.719400000000     0.312170000000     0.135600000000    -0.00560916 
C134     C      0.686490000000     0.281260000000     0.143630000000    -0.00609119 
C135     C      0.753060000000     0.248520000000     0.205100000000    -0.0536069  
C136     C      0.749370000000     0.255670000000     0.298810000000    -0.0527029  
C137     C      0.737300000000     0.265940000000     0.221840000000     0.0646959  
C138     C      0.736130000000     0.294860000000     0.160460000000    -0.0300155  
C139     C      0.765060000000     0.238170000000     0.282100000000     0.0639384  
C140     C      0.764270000000     0.208090000000     0.341040000000    -0.120881   
C141     C      0.766800000000     0.234800000000     0.235110000000    -0.0504277  
C142     C      0.779880000000     0.189990000000     0.366510000000     0.328017   
C143     C      0.813490000000     0.220530000000     0.364020000000     0.00115719 
C144     C      0.735660000000     0.269400000000     0.268810000000    -0.050542   
C145     C      0.676000000000     0.434670000000     0.965930000000    -0.0366225  
C146     C      0.674790000000     0.557830000000     0.050390000000    -0.0309839  
C147     C      0.696310000000     0.582440000000     0.973260000000    -0.00510172 
C148     C      0.685430000000     0.582700000000     0.056930000000    -0.00514315 
C149     C      0.657640000000     0.513210000000     0.000630000000    -0.054691   
C150     C      0.693160000000     0.479030000000     0.016280000000    -0.0535353  
C151     C      0.681110000000     0.520500000000     0.011370000000     0.0632285  
C152     C      0.685110000000     0.557670000000     0.970280000000    -0.0306681  
C153     C      0.669690000000     0.471730000000     0.005590000000     0.0627783  
C154     C      0.666230000000     0.434350000000     0.046070000000    -0.120892   
C155     C      0.652050000000     0.489010000000     0.997840000000    -0.0512315  
C156     C      0.655400000000     0.409360000000     0.043230000000     0.327867   
C157     C      0.665410000000     0.409860000000     0.958940000000     0.00115125 
C158     C      0.698740000000     0.503220000000     0.019120000000    -0.0515231  
C159     C      0.300390000000     0.736540000000     0.836980000000    -0.0362529  
C160     C      0.208520000000     0.765370000000     0.665940000000    -0.0306001  
C161     C      0.223640000000     0.812890000000     0.638100000000    -0.00574354 
C162     C      0.190740000000     0.781830000000     0.641710000000    -0.00513926 
C163     C      0.256490000000     0.747910000000     0.704000000000    -0.0536752  
C164     C      0.252920000000     0.754260000000     0.797950000000    -0.0530475  
C165     C      0.240570000000     0.765010000000     0.721390000000     0.0643035  
C166     C      0.240060000000     0.795140000000     0.662410000000    -0.0300986  
C167     C      0.268840000000     0.737150000000     0.780570000000     0.0639567  
C168     C      0.268920000000     0.706800000000     0.838980000000    -0.121111   
C169     C      0.270480000000     0.734140000000     0.733480000000    -0.0507123  
C170     C      0.285000000000     0.688910000000     0.863870000000     0.328065   
C171     C      0.318030000000     0.719990000000     0.861270000000     0.000195011
C172     C      0.238950000000     0.768040000000     0.768470000000    -0.0507672  
C173     C      0.242030000000     0.789620000000     0.343020000000    -0.0367766  
C174     C      0.267930000000     0.705720000000     0.158860000000    -0.0303498  
C175     C      0.301610000000     0.733860000000     0.105510000000    -0.00528483 
C176     C      0.272750000000     0.699040000000     0.109400000000    -0.00553174 
C177     C      0.273700000000     0.731540000000     0.249440000000    -0.0541426  
C178     C      0.235500000000     0.763670000000     0.252770000000    -0.0532255  
C179     C      0.262860000000     0.739420000000     0.208800000000     0.0638452  
C180     C      0.295600000000     0.739050000000     0.155140000000    -0.0303825  
C181     C      0.246300000000     0.755780000000     0.293440000000     0.0633384  
C182     C      0.213420000000     0.757130000000     0.346720000000    -0.121105   
C183     C      0.265410000000     0.739690000000     0.291350000000    -0.0511813  
C184     C      0.207040000000     0.762910000000     0.396030000000     0.327758   
C185     C      0.237180000000     0.796600000000     0.392260000000     0.000782132
C186     C      0.243760000000     0.755500000000     0.210900000000    -0.0510445  
C187     C      0.445160000000     0.687330000000     0.056560000000    -0.0371304  
C188     C      0.569360000000     0.674460000000     0.980830000000    -0.0307568  
C189     C      0.598550000000     0.686040000000     0.060130000000    -0.00482963 
C190     C      0.595430000000     0.681820000000     0.974240000000    -0.00475992 
C191     C      0.523280000000     0.660750000000     0.029280000000    -0.054428   
C192     C      0.494430000000     0.701160000000     0.019510000000    -0.0536173  
C193     C      0.533960000000     0.683290000000     0.024260000000     0.0633197  
C194     C      0.572220000000     0.678570000000     0.062710000000    -0.030985   
C195     C      0.483750000000     0.678550000000     0.023420000000     0.0629659  
C196     C      0.448780000000     0.682450000000     0.975480000000    -0.121837   
C197     C      0.498370000000     0.658480000000     0.028790000000    -0.0516702  
C198     C      0.422850000000     0.674150000000     0.970200000000     0.328531   
C199     C      0.419100000000     0.679030000000     0.056690000000     0.00319731 
C200     C      0.519340000000     0.703420000000     0.019880000000    -0.0511931  
C201     C      0.203680000000     0.228780000000     0.691460000000    -0.0369819  
C202     C      0.255670000000     0.287040000000     0.869980000000    -0.030176   
C203     C      0.295070000000     0.265850000000     0.921540000000    -0.00449365 
C204     C      0.262740000000     0.297840000000     0.915670000000    -0.00524486 
C205     C      0.231960000000     0.232600000000     0.840020000000    -0.0514377  
C206     C      0.246440000000     0.242250000000     0.750980000000    -0.053124   
C207     C      0.250050000000     0.249340000000     0.832210000000     0.0639824  
C208     C      0.286290000000     0.256620000000     0.875590000000    -0.0307304  
C209     C      0.228200000000     0.225460000000     0.759040000000     0.0634239  
C210     C      0.233180000000     0.197400000000     0.697700000000    -0.121225   
C211     C      0.221130000000     0.220760000000     0.803760000000    -0.0513156  
C212     C      0.219220000000     0.181110000000     0.665560000000     0.327943   
C213     C      0.187920000000     0.214170000000     0.659500000000     0.00200369 
C214     C      0.257260000000     0.254130000000     0.787300000000    -0.0537034  
C215     C      0.300840000000     0.269390000000     0.193290000000    -0.0365526  
C216     C      0.249990000000     0.212930000000     0.379430000000    -0.030553   
C217     C      0.207020000000     0.233190000000     0.420100000000    -0.00451216 
C218     C      0.241820000000     0.204070000000     0.426050000000    -0.00468931 
C219     C      0.269100000000     0.268090000000     0.339830000000    -0.0509016  
C220     C      0.259270000000     0.251760000000     0.252070000000    -0.0527952  
C221     C      0.253750000000     0.248660000000     0.333840000000     0.0641917  
C222     C      0.216800000000     0.240670000000     0.373760000000    -0.0306732  
C223     C      0.274520000000     0.271460000000     0.258290000000     0.0641395  
C224     C      0.266440000000     0.295420000000     0.191670000000    -0.120804   
C225     C      0.279390000000     0.279400000000     0.302380000000    -0.051006   
C226     C      0.278170000000     0.312600000000     0.158060000000     0.327997   
C227     C      0.314830000000     0.285100000000     0.160230000000     0.00234557 
C228     C      0.248940000000     0.240460000000     0.289570000000    -0.0532468  
C229     C      0.558710000000     0.322430000000     0.943720000000    -0.0364221  
C230     C      0.436320000000     0.326240000000     0.033180000000    -0.0307631  
C231     C      0.406280000000     0.340560000000     0.956530000000    -0.00473773 
C232     C      0.411880000000     0.337470000000     0.042120000000    -0.00510875 
C233     C      0.478040000000     0.305340000000     0.977920000000    -0.0533501  
C234     C      0.512830000000     0.340890000000     0.986110000000    -0.0533883  
C235     C      0.470990000000     0.329110000000     0.984900000000     0.0637499  
C236     C      0.431120000000     0.329380000000     0.951440000000    -0.0309227  
C237     C      0.519900000000     0.317120000000     0.979160000000     0.0642423  
C238     C      0.555790000000     0.312910000000     0.024200000000    -0.121687   
C239     C      0.502310000000     0.299500000000     0.974920000000    -0.0509033  
C240     C      0.580830000000     0.301880000000     0.024760000000     0.329122   
C241     C      0.583920000000     0.311830000000     0.941130000000     6.39213e-05
C242     C      0.488570000000     0.346750000000     0.988730000000    -0.0506521  
C243     C      0.315050000000     0.440410000000     0.975380000000    -0.0367198  
C244     C      0.326750000000     0.564470000000     0.051270000000    -0.0311297  
C245     C      0.338100000000     0.587500000000     0.964980000000    -0.00455002 
C246     C      0.338470000000     0.589070000000     0.051440000000    -0.0040135  
C247     C      0.303140000000     0.519560000000     0.014010000000    -0.0536985  
C248     C      0.339190000000     0.485020000000     0.013160000000    -0.0534311  
C249     C      0.327330000000     0.526570000000     0.012500000000     0.064083   
C250     C      0.326260000000     0.563090000000     0.968870000000    -0.0304582  
C251     C      0.315010000000     0.477990000000     0.014930000000     0.0638859  
C252     C      0.317110000000     0.441350000000     0.057960000000    -0.121686   
C253     C      0.297110000000     0.495440000000     0.015300000000    -0.0506296  
C254     C      0.306560000000     0.416300000000     0.061720000000     0.328869   
C255     C      0.304250000000     0.415420000000     0.975930000000     0.000510886
C256     C      0.345210000000     0.509130000000     0.012000000000    -0.0511787  
F1       F      0.190900000000     0.903000000000     0.564310000000    -0.429048   
F2       F      0.900100000000     0.812780000000     0.413340000000    -0.428518   
F3       F      0.840540000000     0.098730000000     0.423800000000    -0.427093   
F4       F      0.101390000000     0.169010000000     0.436360000000    -0.430822   
F5       F      0.763190000000     0.819450000000     0.601720000000    -0.427327   
F6       F      0.774900000000     0.832000000000     0.387530000000    -0.423515   
F7       F      0.674740000000     0.260110000000     0.894830000000    -0.428675   
F8       F      0.765590000000     0.178100000000     0.397610000000    -0.426293   
F9       F      0.661320000000     0.397170000000     0.082740000000    -0.426892   
F10      F      0.271040000000     0.676460000000     0.894710000000    -0.42965    
F11      F      0.182790000000     0.758690000000     0.401970000000    -0.429489   
F12      F      0.413220000000     0.685030000000     0.931920000000    -0.429295   
F13      F      0.235520000000     0.169530000000     0.637940000000    -0.429428   
F14      F      0.260980000000     0.319590000000     0.126610000000    -0.426214   
F15      F      0.591260000000     0.306480000000     0.066620000000    -0.423081   
F16      F      0.317000000000     0.404990000000     0.098730000000    -0.425552   
H1       H      0.226080000000     0.014230000000     0.467660000000     0.0508601  
H2       H      0.177250000000     0.943550000000     0.408360000000     0.040488   
H3       H      0.181740000000     0.949390000000     0.551520000000     0.0817421  
H4       H      0.208880000000     0.088900000000     0.434490000000     0.044465   
H5       H      0.155230000000     0.909890000000     0.435820000000     0.0377379  
H6       H      0.198370000000     0.045480000000     0.551530000000     0.0422731  
H7       H      0.184620000000     0.055480000000     0.410900000000     0.0408128  
H8       H      0.193540000000     0.089090000000     0.565010000000     0.0555877  
H9       H      0.219420000000     0.971080000000     0.467860000000     0.0467539  
H10      H      0.183260000000     0.899050000000     0.415050000000     0.0479975  
H11      H      0.150360000000     0.025740000000     0.485320000000     0.0454976  
H12      H      0.204210000000     0.934680000000     0.437700000000     0.04446    
H13      H      0.179040000000     0.099450000000     0.423630000000     0.0525376  
H14      H      0.158690000000     0.914070000000     0.540130000000    -0.00610044 
H15      H      0.169590000000     0.056790000000     0.533600000000     0.042866   
H16      H      0.161480000000     0.062530000000     0.451260000000     0.0430747  
H17      H      0.143670000000     0.982600000000     0.484910000000     0.0497369  
H18      H      0.206820000000     0.938250000000     0.519700000000     0.0883301  
H19      H      0.218530000000     0.081760000000     0.529510000000     0.0483352  
H20      H      0.017000000000     0.855540000000     0.475820000000     0.0496013  
H21      H      0.953300000000     0.807120000000     0.558410000000     0.0399682  
H22      H      0.947040000000     0.804620000000     0.414860000000     0.0835776  
H23      H      0.086620000000     0.848930000000     0.532460000000     0.0423983  
H24      H      0.917620000000     0.784410000000     0.540270000000     0.0394056  
H25      H      0.056900000000     0.817410000000     0.412030000000     0.0416383  
H26      H      0.052420000000     0.825790000000     0.554780000000     0.0395418  
H27      H      0.101940000000     0.813910000000     0.418420000000     0.0539466  
H28      H      0.973860000000     0.847530000000     0.477610000000     0.0460275  
H29      H      0.909230000000     0.812120000000     0.565810000000     0.048722   
H30      H      0.031320000000     0.780380000000     0.487230000000     0.0461559  
H31      H      0.942200000000     0.832990000000     0.528530000000     0.0435074  
H32      H      0.097270000000     0.822720000000     0.561020000000     0.0505869  
H33      H      0.912950000000     0.783320000000     0.445320000000    -0.004658   
H34      H      0.067130000000     0.793890000000     0.449150000000     0.0445959  
H35      H      0.064630000000     0.798780000000     0.531480000000     0.0429214  
H36      H      0.988100000000     0.772310000000     0.488530000000     0.050255   
H37      H      0.938780000000     0.831610000000     0.443810000000     0.0857796  
H38      H      0.090060000000     0.842740000000     0.431280000000     0.04217    
H39      H      0.874720000000     0.985030000000     0.513940000000     0.0497539  
H40      H      0.822150000000     0.052710000000     0.572530000000     0.041111   
H41      H      0.831600000000     0.052090000000     0.429820000000     0.0845933  
H42      H      0.860090000000     0.914060000000     0.561490000000     0.0410288  
H43      H      0.800850000000     0.087060000000     0.544500000000     0.043488   
H44      H      0.844240000000     0.947860000000     0.434710000000     0.0439262  
H45      H      0.835840000000     0.948460000000     0.577800000000     0.0404615  
H46      H      0.839100000000     0.903330000000     0.434370000000     0.0592416  
H47      H      0.867590000000     0.028110000000     0.511670000000     0.0459849  
H48      H      0.827350000000     0.097090000000     0.573140000000     0.0479122  
H49      H      0.799130000000     0.972430000000     0.496140000000     0.0487492  
H50      H      0.850090000000     0.062690000000     0.548620000000     0.043317   
H51      H      0.830900000000     0.904000000000     0.578080000000     0.0518311  
H52      H      0.807950000000     0.086960000000     0.444230000000     0.00270984 
H53      H      0.816460000000     0.937800000000     0.459220000000     0.048022   
H54      H      0.811600000000     0.938100000000     0.542380000000     0.0460821  
H55      H      0.791980000000     0.015540000000     0.493700000000     0.0532968  
H56      H      0.855640000000     0.062070000000     0.466050000000     0.0865448  
H57      H      0.865780000000     0.913530000000     0.462310000000     0.0448829  
H58      H      0.979590000000     0.147800000000     0.505020000000     0.0453488  
H59      H      0.056190000000     0.168790000000     0.588610000000     0.0397476  
H60      H      0.056470000000     0.186150000000     0.448610000000     0.0807141  
H61      H      0.916240000000     0.210840000000     0.472820000000     0.0429891  
H62      H      0.094590000000     0.186400000000     0.578620000000     0.0399285  
H63      H      0.950040000000     0.178210000000     0.588310000000     0.0386493  
H64      H      0.952860000000     0.192900000000     0.447080000000     0.041329   
H65      H      0.905720000000     0.170020000000     0.581790000000     0.0466016  
H66      H      0.023400000000     0.144690000000     0.505260000000     0.0458388  
H67      H      0.099370000000     0.154980000000     0.582160000000     0.04602    
H68      H      0.984910000000     0.222680000000     0.534620000000     0.0494815  
H69      H      0.061510000000     0.146140000000     0.546680000000     0.0433031  
H70      H      0.908650000000     0.184950000000     0.440380000000     0.0526997  
H71      H      0.095060000000     0.199000000000     0.472330000000    -0.00301688 
H72      H      0.942470000000     0.155220000000     0.548180000000     0.0413383  
H73      H      0.944010000000     0.163740000000     0.466510000000     0.0439234  
H74      H      0.028860000000     0.219540000000     0.535110000000     0.0501055  
H75      H      0.061300000000     0.155970000000     0.467200000000     0.0873859  
H76      H      0.914140000000     0.200410000000     0.571970000000     0.0417415  
H77      H      0.736590000000     0.712480000000     0.726890000000     0.0490866  
H78      H      0.811570000000     0.762950000000     0.707780000000     0.039855   
H79      H      0.747230000000     0.800100000000     0.678730000000     0.0834648  
H80      H      0.730990000000     0.671420000000     0.851530000000     0.0414825  
H81      H      0.822790000000     0.802440000000     0.682720000000     0.0393576  
H82      H      0.696790000000     0.735190000000     0.808400000000     0.0402599  
H83      H      0.762420000000     0.699740000000     0.835210000000     0.0384522  
H84      H      0.678340000000     0.715940000000     0.876760000000     0.0489125  
H85      H      0.757340000000     0.740030000000     0.675550000000     0.0460122  
H86      H      0.831140000000     0.781260000000     0.640180000000     0.049315   
H87      H      0.750910000000     0.759360000000     0.839360000000     0.0443822  
H88      H      0.795910000000     0.756950000000     0.655330000000     0.0439547  
H89      H      0.744510000000     0.680340000000     0.904240000000     0.0466403  
H90      H      0.779400000000     0.827420000000     0.661650000000    -0.00364308 
H91      H      0.712640000000     0.741380000000     0.860570000000     0.0413529  
H92      H      0.751120000000     0.720650000000     0.876230000000     0.0402327  
H93      H      0.771730000000     0.786920000000     0.788020000000     0.0499051  
H94      H      0.758040000000     0.778460000000     0.638670000000     0.086348   
H95      H      0.686650000000     0.695360000000     0.833050000000     0.0419812  
H96      H      0.780140000000     0.757290000000     0.190230000000     0.0504394  
H97      H      0.786180000000     0.741340000000     0.361030000000     0.0414173  
H98      H      0.751110000000     0.805910000000     0.326910000000     0.0848894  
H99      H      0.756530000000     0.699050000000     0.106540000000     0.0404305  
H100     H      0.776640000000     0.761040000000     0.431700000000     0.0409875  
H101     H      0.719510000000     0.760450000000     0.151860000000     0.0404902  
H102     H      0.758540000000     0.698510000000     0.188630000000     0.0390392  
H103     H      0.698420000000     0.737820000000     0.090160000000     0.0472907  
H104     H      0.791250000000     0.775080000000     0.263340000000     0.0492778  
H105     H      0.808450000000     0.761540000000     0.423490000000     0.0519007  
H106     H      0.715990000000     0.728670000000     0.250360000000     0.0446372  
H107     H      0.803770000000     0.766260000000     0.341490000000     0.0493556  
H108     H      0.737800000000     0.675430000000     0.127160000000     0.0470008  
H109     H      0.753670000000     0.804890000000     0.408900000000     0.000487071
H110     H      0.703500000000     0.734670000000     0.172220000000     0.0417079  
H111     H      0.726370000000     0.698400000000     0.193760000000     0.0410939  
H112     H      0.727010000000     0.746600000000     0.323470000000     0.0507044  
H113     H      0.783170000000     0.804000000000     0.320930000000     0.0899191  
H114     H      0.730090000000     0.740930000000     0.081670000000     0.0400812  
H115     H      0.733540000000     0.264190000000     0.678540000000     0.0503464  
H116     H      0.754140000000     0.296640000000     0.835930000000     0.0397392  
H117     H      0.704710000000     0.239460000000     0.836710000000     0.0833141  
H118     H      0.791690000000     0.246210000000     0.587780000000     0.0418166  
H119     H      0.743030000000     0.290820000000     0.914350000000     0.0376359  
H120     H      0.744860000000     0.202900000000     0.667150000000     0.0421399  
H121     H      0.796890000000     0.257840000000     0.666030000000     0.0386358  
H122     H      0.768090000000     0.180590000000     0.607970000000     0.0524495  
H123     H      0.717340000000     0.278900000000     0.750560000000     0.0465608  
H124     H      0.729790000000     0.318010000000     0.894400000000     0.0479824  
H125     H      0.783360000000     0.219830000000     0.752340000000     0.0446917  
H126     H      0.723560000000     0.301910000000     0.818760000000     0.0441766  
H127     H      0.820390000000     0.235760000000     0.606850000000     0.0469961  
H128     H      0.708480000000     0.251540000000     0.914860000000    -0.00554718 
H129     H      0.775250000000     0.196240000000     0.683790000000     0.0421009  
H130     H      0.805530000000     0.228200000000     0.683110000000     0.040669   
H131     H      0.767220000000     0.234620000000     0.824430000000     0.0497199  
H132     H      0.694900000000     0.268580000000     0.818770000000     0.0873304  
H133     H      0.755780000000     0.208340000000     0.588570000000     0.0467923  
H134     H      0.723560000000     0.282680000000     0.282160000000     0.0522541  
H135     H      0.806850000000     0.249260000000     0.316930000000     0.0406324  
H136     H      0.751080000000     0.198170000000     0.319900000000     0.0848965  
H137     H      0.712860000000     0.325570000000     0.160300000000     0.051603   
H138     H      0.825420000000     0.212120000000     0.338530000000     0.0432184  
H139     H      0.694830000000     0.253720000000     0.192290000000     0.0445412  
H140     H      0.749740000000     0.305390000000     0.179420000000     0.0404619  
H141     H      0.674460000000     0.269920000000     0.122710000000     0.0598653  
H142     H      0.747640000000     0.258610000000     0.334960000000     0.0467887  
H143     H      0.824960000000     0.231300000000     0.387080000000     0.0486346  
H144     H      0.754580000000     0.245410000000     0.168960000000     0.045792   
H145     H      0.786730000000     0.248420000000     0.364710000000     0.0435089  
H146     H      0.729780000000     0.321780000000     0.109110000000     0.0510302  
H147     H      0.786700000000     0.176780000000     0.341700000000     0.00227625 
H148     H      0.713540000000     0.253630000000     0.142470000000     0.0438244  
H149     H      0.745630000000     0.283730000000     0.135020000000     0.0408839  
H150     H      0.778750000000     0.221380000000     0.221770000000     0.0517624  
H151     H      0.754150000000     0.218920000000     0.366100000000     0.0869625  
H152     H      0.675290000000     0.290220000000     0.169620000000     0.0541941  
H153     H      0.716870000000     0.508560000000     0.027300000000     0.0490265  
H154     H      0.674160000000     0.444820000000     0.933540000000     0.0395862  
H155     H      0.656960000000     0.444220000000     0.073610000000     0.0827038  
H156     H      0.716060000000     0.580460000000     0.976430000000     0.0411398  
H157     H      0.647160000000     0.411770000000     0.944150000000     0.038534   
H158     H      0.676500000000     0.547880000000     0.083010000000     0.0395818  
H159     H      0.694470000000     0.547570000000     0.943150000000     0.0382348  
H160     H      0.674210000000     0.592600000000     0.081620000000     0.046224   
H161     H      0.707140000000     0.466060000000     0.022410000000     0.045937   
H162     H      0.676570000000     0.400260000000     0.933730000000     0.0480675  
H163     H      0.643700000000     0.526200000000     0.994360000000     0.0437673  
H164     H      0.695440000000     0.433000000000     0.973970000000     0.0439722  
H165     H      0.692580000000     0.592170000000     0.941040000000     0.0466177  
H166     H      0.635580000000     0.411030000000     0.041600000000    -0.00394646 
H167     H      0.655390000000     0.559510000000     0.042060000000     0.03987    
H168     H      0.665910000000     0.559410000000     0.960440000000     0.0397726  
H169     H      0.633930000000     0.483670000000     0.989590000000     0.0490392  
H170     H      0.685530000000     0.432890000000     0.055360000000     0.0867944  
H171     H      0.703630000000     0.580830000000     0.071950000000     0.0415356  
H172     H      0.226780000000     0.781120000000     0.782300000000     0.0508844  
H173     H      0.310730000000     0.748730000000     0.814530000000     0.0425399  
H174     H      0.255810000000     0.696730000000     0.817930000000     0.0831895  
H175     H      0.216490000000     0.825570000000     0.663580000000     0.0503973  
H176     H      0.329860000000     0.711720000000     0.835460000000     0.0468823  
H177     H      0.198320000000     0.753390000000     0.689030000000     0.0414988  
H178     H      0.253350000000     0.805300000000     0.682880000000     0.0416182  
H179     H      0.179030000000     0.770930000000     0.619340000000     0.0518126  
H180     H      0.251280000000     0.756930000000     0.834190000000     0.0464945  
H181     H      0.329530000000     0.730870000000     0.884080000000     0.0539139  
H182     H      0.258070000000     0.745220000000     0.667760000000     0.0456394  
H183     H      0.290880000000     0.747490000000     0.862690000000     0.0442214  
H184     H      0.234440000000     0.823270000000     0.613300000000     0.0552907  
H185     H      0.292100000000     0.676060000000     0.838650000000    -0.00222515 
H186     H      0.217780000000     0.754180000000     0.640270000000     0.0430582  
H187     H      0.249960000000     0.784580000000     0.636630000000     0.0418501  
H188     H      0.282610000000     0.721030000000     0.719660000000     0.0513486  
H189     H      0.258740000000     0.717340000000     0.864410000000     0.0861231  
H190     H      0.179180000000     0.790360000000     0.667630000000     0.0452961  
H191     H      0.235290000000     0.761740000000     0.179910000000     0.0502306  
H192     H      0.260860000000     0.794430000000     0.334790000000     0.0403339  
H193     H      0.211000000000     0.737670000000     0.341440000000     0.0829507  
H194     H      0.290880000000     0.745950000000     0.083450000000     0.0424821  
H195     H      0.251360000000     0.788670000000     0.414210000000     0.0380797  
H196     H      0.249280000000     0.700370000000     0.167370000000     0.0414091  
H197     H      0.297570000000     0.758510000000     0.160920000000     0.0392948  
H198     H      0.272270000000     0.679330000000     0.106320000000     0.0519689  
H199     H      0.220750000000     0.776150000000     0.253400000000     0.0466099  
H200     H      0.238600000000     0.816270000000     0.395090000000     0.0491412  
H201     H      0.288530000000     0.719160000000     0.248750000000     0.044737   
H202     H      0.229950000000     0.799990000000     0.320180000000     0.04475    
H203     H      0.320840000000     0.737940000000     0.099730000000     0.0492014  
H204     H      0.217150000000     0.750630000000     0.418760000000    -0.00641527 
H205     H      0.280390000000     0.695600000000     0.181370000000     0.0419637  
H206     H      0.308630000000     0.729600000000     0.177570000000     0.0413603  
H207     H      0.273920000000     0.733500000000     0.322330000000     0.0496351  
H208     H      0.200840000000     0.766700000000     0.323590000000     0.0868546  
H209     H      0.258110000000     0.706390000000     0.087850000000     0.0458228  
H210     H      0.527320000000     0.720860000000     0.015900000000     0.0497304  
H211     H      0.453270000000     0.682910000000     0.090160000000     0.0396746  
H212     H      0.459560000000     0.674230000000     0.947930000000     0.0806993  
H213     H      0.599630000000     0.705730000000     0.063230000000     0.0420286  
H214     H      0.418390000000     0.660570000000     0.070380000000     0.0375293  
H215     H      0.559070000000     0.679820000000     0.949980000000     0.0399537  
H216     H      0.564070000000     0.687090000000     0.093020000000     0.03872    
H217     H      0.603090000000     0.671210000000     0.945980000000     0.0478984  
H218     H      0.483540000000     0.716940000000     0.015300000000     0.0465085  
H219     H      0.408780000000     0.690470000000     0.080370000000     0.0466602  
H220     H      0.534170000000     0.644910000000     0.032610000000     0.0435444  
H221     H      0.445740000000     0.707020000000     0.052170000000     0.044251   
H222     H      0.608330000000     0.678180000000     0.089550000000     0.0457689  
H223     H      0.422810000000     0.654610000000     0.964410000000    -0.00632174 
H224     H      0.568360000000     0.654730000000     0.984150000000     0.040095   
H225     H      0.571150000000     0.658920000000     0.067220000000     0.0395941  
H226     H      0.490390000000     0.640980000000     0.031760000000     0.0486274  
H227     H      0.449620000000     0.702130000000     0.971090000000     0.0882245  
H228     H      0.595940000000     0.700850000000     0.963830000000     0.0427987  
H229     H      0.271170000000     0.267040000000     0.780390000000     0.0445151  
H230     H      0.191970000000     0.241070000000     0.710920000000     0.0401342  
H231     H      0.243520000000     0.186070000000     0.721890000000     0.0821914  
H232     H      0.287820000000     0.254190000000     0.948810000000     0.0433837  
H233     H      0.172780000000     0.206600000000     0.679290000000     0.0394699  
H234     H      0.236230000000     0.290360000000     0.864280000000     0.0404151  
H235     H      0.289780000000     0.237140000000     0.874140000000     0.0404259  
H236     H      0.261220000000     0.317530000000     0.913100000000     0.0514807  
H237     H      0.252250000000     0.246170000000     0.716730000000     0.0456136  
H238     H      0.180140000000     0.226330000000     0.633440000000     0.0468061  
H239     H      0.226220000000     0.228790000000     0.874390000000     0.0508525  
H240     H      0.216350000000     0.239720000000     0.671030000000     0.043426   
H241     H      0.314930000000     0.264440000000     0.922790000000     0.0472604  
H242     H      0.209730000000     0.167460000000     0.686160000000    -0.00356143 
H243     H      0.265790000000     0.296070000000     0.842320000000     0.040999   
H244     H      0.296670000000     0.265350000000     0.847930000000     0.0410764  
H245     H      0.207160000000     0.207870000000     0.810440000000     0.0507303  
H246     H      0.246180000000     0.208200000000     0.677740000000     0.0865563  
H247     H      0.249770000000     0.291760000000     0.941840000000     0.0478706  
H248     H      0.237090000000     0.225510000000     0.284060000000     0.0459608  
H249     H      0.313880000000     0.259980000000     0.215720000000     0.041141   
H250     H      0.253630000000     0.305680000000     0.212890000000     0.083626   
H251     H      0.212600000000     0.246600000000     0.445720000000     0.0428188  
H252     H      0.328370000000     0.295430000000     0.179740000000     0.044056   
H253     H      0.269810000000     0.211140000000     0.377550000000     0.0406381  
H254     H      0.211820000000     0.259590000000     0.367590000000     0.0419497  
H255     H      0.245300000000     0.184620000000     0.428430000000     0.0514246  
H256     H      0.255180000000     0.245320000000     0.218330000000     0.0463454  
H257     H      0.324770000000     0.273440000000     0.136370000000     0.0476972  
H258     H      0.272920000000     0.274590000000     0.373680000000     0.050874   
H259     H      0.290640000000     0.255750000000     0.173840000000     0.0436282  
H260     H      0.187120000000     0.233310000000     0.418490000000     0.0528331  
H261     H      0.284150000000     0.328680000000     0.176860000000     0.00544494 
H262     H      0.241920000000     0.201530000000     0.352560000000     0.0425901  
H263     H      0.208260000000     0.229650000000     0.346810000000     0.0446367  
H264     H      0.291030000000     0.294550000000     0.307630000000     0.0527091  
H265     H      0.256050000000     0.281760000000     0.172590000000     0.0872741  
H266     H      0.252830000000     0.212920000000     0.452620000000     0.0451022  
H267     H      0.483420000000     0.365050000000     0.994610000000     0.0499228  
H268     H      0.549860000000     0.320270000000     0.910050000000     0.0417898  
H269     H      0.544760000000     0.303720000000     0.050350000000     0.0855087  
H270     H      0.407930000000     0.360140000000     0.952000000000     0.0410692  
H271     H      0.582510000000     0.293370000000     0.927940000000     0.0471496  
H272     H      0.448360000000     0.330580000000     0.062230000000     0.0418378  
H273     H      0.439270000000     0.336170000000     0.919480000000     0.0392566  
H274     H      0.403840000000     0.328720000000     0.072390000000     0.0517335  
H275     H      0.526020000000     0.354810000000     0.990280000000     0.0468166  
H276     H      0.594560000000     0.322370000000     0.916340000000     0.0516642  
H277     H      0.464840000000     0.291310000000     0.975520000000     0.0454867  
H278     H      0.560210000000     0.341800000000     0.950960000000     0.0439431  
H279     H      0.394480000000     0.333800000000     0.928940000000     0.0471719  
H280     H      0.578980000000     0.282280000000     0.021100000000    -0.000184252
H281     H      0.434380000000     0.306530000000     0.031590000000     0.042777   
H282     H      0.429140000000     0.309730000000     0.948530000000     0.0412004  
H283     H      0.507470000000     0.281110000000     0.970140000000     0.0520223  
H284     H      0.557100000000     0.332060000000     0.033540000000     0.0882282  
H285     H      0.414510000000     0.356580000000     0.050370000000     0.0446484  
H286     H      0.363880000000     0.514280000000     0.010650000000     0.0493758  
H287     H      0.308270000000     0.449960000000     0.944730000000     0.0408196  
H288     H      0.311800000000     0.451590000000     0.088620000000     0.0847487  
H289     H      0.357500000000     0.584980000000     0.958210000000     0.0436355  
H290     H      0.284460000000     0.416980000000     0.972770000000     0.0424549  
H291     H      0.332360000000     0.554830000000     0.082650000000     0.0405473  
H292     H      0.331420000000     0.552390000000     0.938710000000     0.0410408  
H293     H      0.330790000000     0.599640000000     0.079730000000     0.0485984  
H294     H      0.353380000000     0.471920000000     0.012750000000     0.045701   
H295     H      0.310840000000     0.405590000000     0.945740000000     0.048292   
H296     H      0.288980000000     0.532710000000     0.014170000000     0.0466523  
H297     H      0.334880000000     0.438980000000     0.972720000000     0.0431445  
H298     H      0.330240000000     0.597030000000     0.935280000000     0.0555447  
H299     H      0.287020000000     0.417910000000     0.068200000000     0.000721312
H300     H      0.306930000000     0.566600000000     0.052020000000     0.0434787  
H301     H      0.306440000000     0.565270000000     0.968490000000     0.0452156  
H302     H      0.278440000000     0.490290000000     0.016610000000     0.0516474  
H303     H      0.337000000000     0.440060000000     0.057510000000     0.0854925  
H304     H      0.357940000000     0.586900000000     0.058320000000     0.0405474  
In1      In     0.323960000000     0.331970000000     0.018680000000     2.41954    
In2      In     0.335730000000     0.673470000000     0.000990000000     2.42263    
In3      In     0.666670000000     0.324110000000     0.000550000000     2.41517    
In4      In     0.681140000000     0.667670000000     0.008010000000     2.40058    
In5      In     0.831410000000     0.172800000000     0.501970000000     2.41191    
In6      In     0.832530000000     0.828150000000     0.508090000000     2.42053    
In7      In     0.175290000000     0.826480000000     0.498360000000     2.42199    
In8      In     0.177120000000     0.167620000000     0.518380000000     2.41905    
N1       N      0.179020000000     0.898560000000     0.487530000000    -0.195029   
N2       N      0.176380000000     0.948460000000     0.479960000000    -0.103119   
N3       N      0.193790000000     0.048280000000     0.479830000000    -0.112015   
N4       N      0.189760000000     0.097650000000     0.493890000000    -0.164539   
N5       N      0.902390000000     0.808900000000     0.493800000000    -0.196198   
N6       N      0.952580000000     0.803800000000     0.486380000000    -0.103346   
N7       N      0.052480000000     0.824340000000     0.482530000000    -0.11215    
N8       N      0.102730000000     0.823920000000     0.488780000000    -0.165652   
N9       N      0.827400000000     0.100410000000     0.500290000000    -0.194378   
N10      N      0.824160000000     0.050220000000     0.500540000000    -0.102324   
N11      N      0.842600000000     0.950380000000     0.506780000000    -0.111964   
N12      N      0.839510000000     0.900330000000     0.507250000000    -0.165237   
N13      N      0.104290000000     0.170600000000     0.516290000000    -0.194661   
N14      N      0.055190000000     0.181100000000     0.520190000000    -0.103      
N15      N      0.953350000000     0.188380000000     0.518900000000    -0.112193   
N16      N      0.903440000000     0.182220000000     0.512610000000    -0.166094   
N17      N      0.801080000000     0.803920000000     0.623820000000    -0.194988   
N18      N      0.778930000000     0.782030000000     0.699340000000    -0.103354   
N19      N      0.730030000000     0.717010000000     0.815750000000    -0.112487   
N20      N      0.709120000000     0.693950000000     0.890880000000    -0.166606   
N21      N      0.790100000000     0.795070000000     0.414770000000    -0.194005   
N22      N      0.765880000000     0.771990000000     0.342760000000    -0.102707   
N23      N      0.741680000000     0.731290000000     0.171290000000    -0.112257   
N24      N      0.719540000000     0.706110000000     0.099940000000    -0.168702   
N25      N      0.705560000000     0.288720000000     0.905140000000    -0.196215   
N26      N      0.732010000000     0.265830000000     0.836140000000    -0.103282   
N27      N      0.768420000000     0.232680000000     0.666820000000    -0.112008   
N28      N      0.793330000000     0.208970000000     0.597240000000    -0.166847   
N29      N      0.800620000000     0.201570000000     0.388760000000    -0.194111   
N30      N      0.779220000000     0.223320000000     0.311990000000    -0.102609   
N31      N      0.722280000000     0.280010000000     0.192120000000    -0.111418   
N32      N      0.698570000000     0.299650000000     0.116100000000    -0.162948   
N33      N      0.663580000000     0.396590000000     0.002190000000    -0.195479   
N34      N      0.663160000000     0.446910000000     0.002550000000    -0.103415   
N35      N      0.687690000000     0.545300000000     0.014140000000    -0.112539   
N36      N      0.687430000000     0.595460000000     0.013230000000    -0.168386   
N37      N      0.305480000000     0.700900000000     0.886210000000    -0.194079   
N38      N      0.283440000000     0.722420000000     0.809880000000    -0.102862   
N39      N      0.225800000000     0.779590000000     0.692140000000    -0.111922   
N40      N      0.203340000000     0.800630000000     0.616150000000    -0.164272   
N41      N      0.213690000000     0.787670000000     0.407550000000    -0.196332   
N42      N      0.238370000000     0.763890000000     0.337380000000    -0.103383   
N43      N      0.270920000000     0.731530000000     0.164830000000    -0.112197   
N44      N      0.295710000000     0.709050000000     0.093710000000    -0.166025   
N45      N      0.408170000000     0.679180000000     0.010860000000    -0.19503    
N46      N      0.458180000000     0.675240000000     0.020100000000    -0.103309   
N47      N      0.559580000000     0.686220000000     0.021240000000    -0.11227    
N48      N      0.609400000000     0.679000000000     0.016570000000    -0.167486   
N49      N      0.201230000000     0.194390000000     0.638420000000    -0.195169   
N50      N      0.216560000000     0.212770000000     0.722610000000    -0.103139   
N51      N      0.260540000000     0.261360000000     0.870660000000    -0.111838   
N52      N      0.287020000000     0.290470000000     0.929880000000    -0.166591   
N53      N      0.299250000000     0.302010000000     0.135380000000    -0.19269    
N54      N      0.284790000000     0.284260000000     0.220500000000    -0.102295   
N55      N      0.242970000000     0.237950000000     0.373410000000    -0.111953   
N56      N      0.216400000000     0.209740000000     0.434160000000    -0.166068   
N57      N      0.595290000000     0.311030000000     0.986460000000    -0.193562   
N58      N      0.544780000000     0.310110000000     0.979070000000    -0.102562   
N59      N      0.446220000000     0.335740000000     0.990610000000    -0.112062   
N60      N      0.396150000000     0.335750000000     0.001890000000    -0.166984   
N61      N      0.309980000000     0.403030000000     0.018900000000    -0.195289   
N62      N      0.308080000000     0.453270000000     0.016730000000    -0.102898   
N63      N      0.334350000000     0.551250000000     0.010790000000    -0.112233   
N64      N      0.335470000000     0.601250000000     0.007290000000    -0.165711   
O1       O      0.296620000000     0.328360000000     0.075280000000    -0.451879   
O2       O      0.326610000000     0.305080000000     0.076980000000    -0.49671    
O3       O      0.292630000000     0.324920000000     0.970690000000    -0.494967   
O4       O      0.315910000000     0.367170000000     0.982610000000    -0.500754   
O5       O      0.362270000000     0.332210000000     0.045840000000    -0.495327   
O6       O      0.318600000000     0.367360000000     0.054530000000    -0.451015   
O7       O      0.319560000000     0.298370000000     0.975880000000    -0.504985   
O8       O      0.357450000000     0.334220000000     0.974330000000    -0.503797   
O9       O      0.307240000000     0.673840000000     0.945410000000    -0.456457   
O10      O      0.334000000000     0.700650000000     0.943210000000    -0.493745   
O11      O      0.304100000000     0.676320000000     0.049550000000    -0.494932   
O12      O      0.334880000000     0.638370000000     0.040460000000    -0.498758   
O13      O      0.373030000000     0.675140000000     0.970150000000    -0.463729   
O14      O      0.334660000000     0.636850000000     0.968320000000    -0.490293   
O15      O      0.328140000000     0.705580000000     0.045940000000    -0.500242   
O16      O      0.370200000000     0.679500000000     0.041550000000    -0.505386   
O17      O      0.669440000000     0.298490000000     0.060530000000    -0.477023   
O18      O      0.696460000000     0.324870000000     0.054160000000    -0.491592   
O19      O      0.673560000000     0.292320000000     0.954210000000    -0.462523   
O20      O      0.632230000000     0.322080000000     0.958210000000    -0.496924   
O21      O      0.660910000000     0.359600000000     0.036290000000    -0.457544   
O22      O      0.630300000000     0.313240000000     0.028240000000    -0.443608   
O23      O      0.698170000000     0.320980000000     0.951390000000    -0.50394    
O24      O      0.669910000000     0.360630000000     0.966400000000    -0.501357   
O25      O      0.709920000000     0.671220000000     0.063110000000    -0.503071   
O26      O      0.690100000000     0.702130000000     0.045380000000    -0.505637   
O27      O      0.711680000000     0.672020000000     0.957180000000    -0.496327   
O28      O      0.688140000000     0.631480000000     0.975590000000    -0.502489   
O29      O      0.647010000000     0.675060000000     0.048500000000    -0.49948    
O30      O      0.679430000000     0.631920000000     0.045650000000    -0.501037   
O31      O      0.678930000000     0.690040000000     0.943480000000    -0.491102   
O32      O      0.643730000000     0.669750000000     0.977330000000    -0.496978   
O33      O      0.802410000000     0.173940000000     0.447080000000    -0.450809   
O34      O      0.829380000000     0.200510000000     0.445220000000    -0.497522   
O35      O      0.799700000000     0.176820000000     0.550340000000    -0.492462   
O36      O      0.827620000000     0.136630000000     0.537110000000    -0.5019     
O37      O      0.868220000000     0.180130000000     0.471830000000    -0.489755   
O38      O      0.832020000000     0.137050000000     0.465550000000    -0.45529    
O39      O      0.825810000000     0.204230000000     0.549970000000    -0.5038     
O40      O      0.866340000000     0.173680000000     0.542900000000    -0.499936   
O41      O      0.820240000000     0.795540000000     0.468550000000    -0.505379   
O42      O      0.802670000000     0.828240000000     0.454640000000    -0.448945   
O43      O      0.832110000000     0.805700000000     0.572510000000    -0.498284   
O44      O      0.869660000000     0.819920000000     0.536290000000    -0.501081   
O45      O      0.833310000000     0.864360000000     0.543160000000    -0.499951   
O46      O      0.864820000000     0.817670000000     0.464960000000    -0.453933   
O47      O      0.801250000000     0.826490000000     0.557890000000    -0.453716   
O48      O      0.837330000000     0.863910000000     0.471570000000    -0.483515   
O49      O      0.175610000000     0.800350000000     0.557890000000    -0.49205    
O50      O      0.203380000000     0.826180000000     0.554720000000    -0.487413   
O51      O      0.181620000000     0.793200000000     0.455820000000    -0.46173    
O52      O      0.140560000000     0.822070000000     0.457840000000    -0.491593   
O53      O      0.178340000000     0.863540000000     0.528640000000    -0.461439   
O54      O      0.137980000000     0.826300000000     0.529350000000    -0.497231   
O55      O      0.206780000000     0.821320000000     0.450210000000    -0.506521   
O56      O      0.177460000000     0.860870000000     0.456720000000    -0.50202    
O57      O      0.181880000000     0.200390000000     0.473070000000    -0.493389   
O58      O      0.210900000000     0.176120000000     0.477960000000    -0.498143   
O59      O      0.176780000000     0.195290000000     0.575030000000    -0.506133   
O60      O      0.140520000000     0.163530000000     0.551760000000    -0.509467   
O61      O      0.179660000000     0.135640000000     0.470740000000    -0.492855   
O62      O      0.141330000000     0.173150000000     0.481940000000    -0.461783   
O63      O      0.201630000000     0.166840000000     0.580450000000    -0.452663   
O64      O      0.185710000000     0.129890000000     0.541270000000    -0.487877   


