data_structure

_audit_creation_method RASPA-1.0
_audit_creation_date 2023-6-5
_audit_author_name 'Poobodin Mano'

_cell_length_a    57.084
_cell_length_b    53.4907
_cell_length_c    29.8177
_cell_angle_alpha 89.7759
_cell_angle_beta  90.2242
_cell_angle_gamma 89.9997
_cell_volume      91045.9

_symmetry_cell_setting          triclinic
_symmetry_space_group_name_Hall 'P 1'
_symmetry_space_group_name_H-M  'P 1'
_symmetry_Int_Tables_number     1

_symmetry_equiv_pos_as_xyz 'x,y,z'

loop_
_atom_site_label
_atom_site_type_symbol
_atom_site_fract_x
_atom_site_fract_y
_atom_site_fract_z
_atom_site_charge
C1       C      0.310410000000     0.396930000000     0.011100000000     0.40137    
C2       C      0.301220000000     0.329460000000     0.950020000000     0.408828   
C3       C      0.369830000000     0.342920000000     0.030260000000     0.419908   
C4       C      0.306970000000     0.327890000000     0.100230000000     0.416927   
C5       C      0.314650000000     0.656210000000     0.005310000000     0.411088   
C6       C      0.317460000000     0.727110000000     0.090740000000     0.402381   
C7       C      0.372440000000     0.706100000000     0.998790000000     0.419654   
C8       C      0.298110000000     0.730910000000     0.952290000000     0.407855   
C9       C      0.612150000000     0.341100000000     0.990940000000     0.409342   
C10      C      0.684080000000     0.330740000000     0.935940000000     0.423052   
C11      C      0.668780000000     0.396620000000     0.013810000000     0.402329   
C12      C      0.671270000000     0.323720000000     0.083030000000     0.404924   
C13      C      0.655560000000     0.653670000000     0.965380000000     0.419839   
C14      C      0.685370000000     0.724920000000     0.906740000000     0.416607   
C15      C      0.614220000000     0.718970000000     0.968520000000     0.407617   
C16      C      0.681990000000     0.719430000000     0.047390000000     0.423427   
C17      C      0.814040000000     0.146900000000     0.517940000000     0.416631   
C18      C      0.797090000000     0.212370000000     0.581220000000     0.402961   
C19      C      0.864580000000     0.208940000000     0.492020000000     0.404204   
C20      C      0.800050000000     0.218180000000     0.432160000000     0.415607   
C21      C      0.878550000000     0.829230000000     0.470480000000     0.40578    
C22      C      0.804020000000     0.816640000000     0.533010000000     0.405676   
C23      C      0.829770000000     0.887950000000     0.480940000000     0.399766   
C24      C      0.817410000000     0.816940000000     0.392690000000     0.404485   
C25      C      0.121520000000     0.847720000000     0.494920000000     0.417735   
C26      C      0.186210000000     0.831700000000     0.428870000000     0.419105   
C27      C      0.173430000000     0.902840000000     0.517000000000     0.416362   
C28      C      0.192350000000     0.830940000000     0.571030000000     0.419388   
C29      C      0.108100000000     0.213800000000     0.512070000000     0.414681   
C30      C      0.180730000000     0.230110000000     0.581880000000     0.415713   
C31      C      0.167660000000     0.162350000000     0.527890000000     0.405967   
C32      C      0.166550000000     0.234730000000     0.436900000000     0.405953   
C33      C      0.194850000000     0.968870000000     0.504000000000    -0.0337921  
C34      C      0.160380000000     0.096970000000     0.561990000000    -0.0308684  
C35      C      0.193520000000     0.126770000000     0.510250000000    -0.00502834 
C36      C      0.164770000000     0.124270000000     0.574480000000    -0.00482985 
C37      C      0.194200000000     0.043660000000     0.560350000000    -0.0532736  
C38      C      0.161230000000     0.023240000000     0.501330000000    -0.0531392  
C39      C      0.179490000000     0.059570000000     0.535660000000     0.0621295  
C40      C      0.188110000000     0.099340000000     0.500220000000    -0.0307666  
C41      C      0.175930000000     0.007330000000     0.526010000000     0.0616249  
C42      C      0.165500000000     0.968290000000     0.561790000000    -0.0839593  
C43      C      0.192470000000     0.017730000000     0.555730000000    -0.0553499  
C44      C      0.158270000000     0.941220000000     0.551800000000     0.172152   
C45      C      0.189450000000     0.942180000000     0.489310000000    -0.000281179
C46      C      0.162910000000     0.049150000000     0.506050000000    -0.0558071  
C47      C      0.059640000000     0.832620000000     0.524850000000    -0.0338909  
C48      C      0.939810000000     0.834160000000     0.434500000000    -0.0308863  
C49      C      0.913800000000     0.815190000000     0.511450000000    -0.00473095 
C50      C      0.915110000000     0.823700000000     0.427870000000    -0.00488541 
C51      C      0.992410000000     0.809000000000     0.471390000000    -0.0534028  
C52      C      0.007130000000     0.857980000000     0.487990000000    -0.0532591  
C53      C      0.975710000000     0.827950000000     0.476310000000     0.0621285  
C54      C      0.938530000000     0.826000000000     0.514850000000    -0.0307625  
C55      C      0.023830000000     0.839020000000     0.483100000000     0.0614123  
C56      C      0.061160000000     0.840680000000     0.445180000000    -0.0838055  
C57      C      0.016290000000     0.814390000000     0.474740000000    -0.055309   
C58      C      0.085880000000     0.851930000000     0.448010000000     0.171291   
C59      C      0.083850000000     0.843870000000     0.532830000000    -0.00125333 
C60      C      0.983250000000     0.852580000000     0.484660000000    -0.0559213  
C61      C      0.832850000000     0.082530000000     0.542150000000    -0.033739   
C62      C      0.808340000000     0.953570000000     0.472330000000    -0.0308269  
C63      C      0.847440000000     0.926030000000     0.512130000000    -0.00509207 
C64      C      0.815100000000     0.928210000000     0.452780000000    -0.00483146 
C65      C      0.836470000000     0.010280000000     0.476460000000    -0.0532909  
C66      C      0.805340000000     0.024220000000     0.544090000000    -0.0534351  
C67      C      0.825010000000     0.991770000000     0.501390000000     0.0619248  
C68      C      0.839080000000     0.951590000000     0.528460000000    -0.0308987  
C69      C      0.816780000000     0.042750000000     0.519080000000     0.0613092  
C70      C      0.799920000000     0.081040000000     0.490370000000    -0.0829309  
C71      C      0.832420000000     0.035560000000     0.485040000000    -0.0553049  
C72      C      0.791850000000     0.107390000000     0.503620000000     0.169274   
C73      C      0.826040000000     0.108680000000     0.557920000000    -0.00261508 
C74      C      0.809330000000     0.998910000000     0.535370000000    -0.0558784  
C75      C      0.046210000000     0.200600000000     0.478910000000    -0.0339463  
C76      C      0.923000000000     0.233510000000     0.518400000000    -0.030771   
C77      C      0.901520000000     0.200740000000     0.452000000000    -0.00519255 
C78      C      0.897670000000     0.238060000000     0.503290000000    -0.0054838  
C79      C      0.976920000000     0.232770000000     0.463380000000    -0.0533699  
C80      C      0.994040000000     0.204790000000     0.535840000000    -0.0531773  
C81      C      0.961150000000     0.220460000000     0.491770000000     0.0618456  
C82      C      0.926610000000     0.197480000000     0.469210000000    -0.0306506  
C83      C      0.009820000000     0.216970000000     0.507280000000     0.0611994  
C84      C      0.046430000000     0.238010000000     0.523950000000    -0.0834453  
C85      C      0.001060000000     0.231070000000     0.470900000000    -0.0553537  
C86      C      0.071710000000     0.233530000000     0.540150000000     0.170555   
C87      C      0.071020000000     0.193480000000     0.493250000000    -0.00140561 
C88      C      0.969910000000     0.206440000000     0.528240000000    -0.0557978  
C89      C      0.698410000000     0.762340000000     0.805070000000    -0.0335719  
C90      C      0.787880000000     0.778930000000     0.631890000000    -0.0308103  
C91      C      0.765710000000     0.814560000000     0.570740000000    -0.00525891 
C92      C      0.796610000000     0.781110000000     0.583660000000    -0.00505272 
C93      C      0.736190000000     0.759600000000     0.679240000000    -0.053288   
C94      C      0.749850000000     0.784600000000     0.757290000000    -0.0533411  
C95      C      0.752730000000     0.778870000000     0.676590000000     0.0619483  
C96      C      0.758170000000     0.810800000000     0.619520000000    -0.0309215  
C97      C      0.733330000000     0.765290000000     0.759960000000     0.0614189  
C98      C      0.730290000000     0.733140000000     0.816850000000    -0.083041   
C99      C      0.726550000000     0.752780000000     0.720490000000    -0.0553538  
C100     C      0.723170000000     0.728270000000     0.865780000000     0.169983   
C101     C      0.690010000000     0.759450000000     0.853320000000    -0.00210691 
C102     C      0.759550000000     0.791370000000     0.716030000000    -0.0558525  
C103     C      0.713840000000     0.762570000000     0.122650000000    -0.0340909  
C104     C      0.790180000000     0.769900000000     0.320650000000    -0.0307952  
C105     C      0.804640000000     0.822080000000     0.314020000000    -0.00546102 
C106     C      0.811540000000     0.779050000000     0.346980000000    -0.00534652 
C107     C      0.776020000000     0.767250000000     0.206770000000    -0.0535122  
C108     C      0.729340000000     0.762750000000     0.233840000000    -0.0533559  
C109     C      0.769620000000     0.774680000000     0.249990000000     0.0620986  
C110     C      0.783460000000     0.811390000000     0.289040000000    -0.0307429  
C111     C      0.735750000000     0.755230000000     0.190660000000     0.0613781  
C112     C      0.722810000000     0.720150000000     0.145790000000    -0.0834713  
C113     C      0.759270000000     0.757680000000     0.177180000000    -0.0552539  
C114     C      0.701690000000     0.709500000000     0.120060000000     0.170493   
C115     C      0.692040000000     0.754230000000     0.097010000000    -0.00133469 
C116     C      0.746060000000     0.772490000000     0.263320000000    -0.0558723  
C117     C      0.696090000000     0.300450000000     0.826910000000    -0.034094   
C118     C      0.788610000000     0.242610000000     0.691220000000    -0.0308637  
C119     C      0.759980000000     0.220620000000     0.620340000000    -0.0051434  
C120     C      0.798850000000     0.221870000000     0.662000000000    -0.00522205 
C121     C      0.741400000000     0.245240000000     0.764920000000    -0.0533202  
C122     C      0.743750000000     0.297260000000     0.756340000000    -0.0533221  
C123     C      0.752940000000     0.255790000000     0.728060000000     0.0618321  
C124     C      0.751460000000     0.241480000000     0.651190000000    -0.030681   
C125     C      0.732230000000     0.286710000000     0.793240000000     0.0612248  
C126     C      0.731860000000     0.299820000000     0.870880000000    -0.0835524  
C127     C      0.731070000000     0.260480000000     0.797260000000    -0.0553542  
C128     C      0.722830000000     0.320160000000     0.902740000000     0.170871   
C129     C      0.685530000000     0.321120000000     0.855670000000    -0.0017761  
C130     C      0.754000000000     0.282000000000     0.723890000000    -0.0558291  
C131     C      0.766120000000     0.263940000000     0.364870000000    -0.0337564  
C132     C      0.701070000000     0.276910000000     0.152520000000    -0.0309268  
C133     C      0.679100000000     0.325630000000     0.164450000000    -0.00556674 
C134     C      0.680050000000     0.284380000000     0.123370000000    -0.00491154 
C135     C      0.709630000000     0.267850000000     0.266640000000    -0.0534006  
C136     C      0.757570000000     0.273810000000     0.250800000000    -0.0530876  
C137     C      0.717060000000     0.280070000000     0.227590000000     0.0620492  
C138     C      0.700180000000     0.316690000000     0.192010000000    -0.0306211  
C139     C      0.750150000000     0.261530000000     0.289810000000     0.061256   
C140     C      0.766640000000     0.224620000000     0.324790000000    -0.0830218  
C141     C      0.725970000000     0.258630000000     0.297580000000    -0.0551742  
C142     C      0.787660000000     0.214920000000     0.352090000000     0.169431   
C143     C      0.787290000000     0.256430000000     0.393440000000    -0.00234232 
C144     C      0.741230000000     0.283050000000     0.219870000000    -0.0558071  
C145     C      0.646650000000     0.589500000000     0.006040000000    -0.0338628  
C146     C      0.682450000000     0.459040000000     0.972520000000    -0.0307574  
C147     C      0.663780000000     0.436530000000     0.054120000000    -0.00479305 
C148     C      0.691310000000     0.433460000000     0.988340000000    -0.00533651 
C149     C      0.683340000000     0.518800000000     0.016940000000    -0.0532769  
C150     C      0.646120000000     0.530420000000     0.959250000000    -0.053377   
C151     C      0.669690000000     0.499490000000     0.999000000000     0.0621103  
C152     C      0.655830000000     0.461990000000     0.036120000000    -0.0309083  
C153     C      0.659690000000     0.549740000000     0.977380000000     0.061479   
C154     C      0.672720000000     0.588070000000     0.941920000000    -0.0830234  
C155     C      0.678460000000     0.543730000000     0.006300000000    -0.0552765  
C156     C      0.664430000000     0.613830000000     0.925160000000     0.169686   
C157     C      0.636960000000     0.614920000000     0.991690000000    -0.00200062 
C158     C      0.651020000000     0.505480000000     0.969850000000    -0.0558854  
C159     C      0.201980000000     0.791520000000     0.671750000000    -0.0337196  
C160     C      0.284830000000     0.772010000000     0.857090000000    -0.0307771  
C161     C      0.260040000000     0.736280000000     0.913800000000    -0.00540522 
C162     C      0.292060000000     0.768730000000     0.906160000000    -0.00476581 
C163     C      0.234780000000     0.792730000000     0.803570000000    -0.0531329  
C164     C      0.251260000000     0.768840000000     0.726620000000    -0.0531045  
C165     C      0.251210000000     0.773420000000     0.807780000000     0.0622554  
C166     C      0.253930000000     0.740870000000     0.864400000000    -0.0307612  
C167     C      0.234940000000     0.788260000000     0.722390000000     0.061588   
C168     C      0.233680000000     0.821510000000     0.667230000000    -0.0833883  
C169     C      0.226640000000     0.800140000000     0.761320000000    -0.0551979  
C170     C      0.228520000000     0.827260000000     0.617630000000     0.170438   
C171     C      0.195580000000     0.795240000000     0.622430000000    -0.00195641 
C172     C      0.259380000000     0.761420000000     0.768900000000    -0.0556842  
C173     C      0.218150000000     0.784720000000     0.363410000000    -0.033781   
C174     C      0.291230000000     0.773390000000     0.162450000000    -0.0307203  
C175     C      0.310520000000     0.723200000000     0.172300000000    -0.0054556  
C176     C      0.312750000000     0.765580000000     0.135520000000    -0.00547151 
C177     C      0.278480000000     0.779500000000     0.275030000000    -0.0533415  
C178     C      0.231170000000     0.776370000000     0.250870000000    -0.0531749  
C179     C      0.272200000000     0.768520000000     0.234170000000     0.0621919  
C180     C      0.289050000000     0.732240000000     0.198210000000    -0.0306543  
C181     C      0.237450000000     0.787500000000     0.291610000000     0.0616681  
C182     C      0.221310000000     0.824740000000     0.325130000000    -0.0833525  
C183     C      0.261310000000     0.788920000000     0.303630000000    -0.0552761  
C184     C      0.199770000000     0.835140000000     0.349460000000     0.170218   
C185     C      0.196360000000     0.793190000000     0.388730000000    -0.00251022 
C186     C      0.248340000000     0.766920000000     0.222300000000    -0.0556594  
C187     C      0.435490000000     0.715450000000     0.025250000000    -0.0339463  
C188     C      0.553810000000     0.717340000000     0.929740000000    -0.0309094  
C189     C      0.579710000000     0.736780000000     0.006530000000    -0.00486003 
C190     C      0.578610000000     0.727610000000     0.923620000000    -0.00496699 
C191     C      0.501050000000     0.742440000000     0.968730000000    -0.0535294  
C192     C      0.486680000000     0.692950000000     0.981730000000    -0.053414   
C193     C      0.517850000000     0.723410000000     0.971130000000     0.0621361  
C194     C      0.554960000000     0.726040000000     0.010060000000    -0.0309061  
C195     C      0.469870000000     0.711970000000     0.979070000000     0.0614133  
C196     C      0.431370000000     0.712930000000     0.944630000000    -0.0837732  
C197     C      0.477240000000     0.736870000000     0.972860000000    -0.0553605  
C198     C      0.406570000000     0.701940000000     0.947890000000     0.170871   
C199     C      0.411390000000     0.703930000000     0.033060000000    -0.00161382 
C200     C      0.510500000000     0.698550000000     0.978030000000    -0.0559414  
C201     C      0.194790000000     0.261860000000     0.690120000000    -0.0338331  
C202     C      0.291580000000     0.297560000000     0.840370000000    -0.0308279  
C203     C      0.264490000000     0.323890000000     0.908330000000    -0.00404975 
C204     C      0.304160000000     0.315820000000     0.871670000000    -0.00467258 
C205     C      0.247240000000     0.305540000000     0.760640000000    -0.053305   
C206     C      0.240240000000     0.253870000000     0.765550000000    -0.0531053  
C207     C      0.255670000000     0.292210000000     0.797840000000     0.0621591  
C208     C      0.254050000000     0.305090000000     0.875410000000    -0.0309112  
C209     C      0.231750000000     0.267210000000     0.728380000000     0.0613268  
C210     C      0.230960000000     0.255720000000     0.649990000000    -0.083602   
C211     C      0.235350000000     0.293240000000     0.726150000000    -0.0552717  
C212     C      0.219590000000     0.237740000000     0.616280000000     0.171109   
C213     C      0.181360000000     0.243860000000     0.659890000000    -0.00132185 
C214     C      0.252080000000     0.266190000000     0.800130000000    -0.0559434  
C215     C      0.270600000000     0.285750000000     0.166950000000    -0.0335431  
C216     C      0.199250000000     0.279690000000     0.371250000000    -0.0308816  
C217     C      0.173350000000     0.233600000000     0.355060000000    -0.00511608 
C218     C      0.176910000000     0.274010000000     0.397660000000    -0.00494711 
C219     C      0.212300000000     0.289210000000     0.259370000000    -0.0533557  
C220     C      0.258680000000     0.276560000000     0.279800000000    -0.052981   
C221     C      0.217190000000     0.275430000000     0.298310000000     0.0622457  
C222     C      0.195770000000     0.240500000000     0.329920000000    -0.0306622  
C223     C      0.253770000000     0.290190000000     0.240690000000     0.0613902  
C224     C      0.275930000000     0.324390000000     0.208510000000    -0.0829841  
C225     C      0.230370000000     0.296610000000     0.230750000000    -0.0550841  
C226     C      0.298340000000     0.330780000000     0.182440000000     0.169439   
C227     C      0.292850000000     0.290420000000     0.139900000000    -0.00293422 
C228     C      0.240610000000     0.269230000000     0.308500000000    -0.0557483  
C229     C      0.432180000000     0.360040000000     0.018840000000    -0.0338773  
C230     C      0.553450000000     0.314750000000     0.007070000000    -0.030922   
C231     C      0.574440000000     0.358740000000     0.965390000000    -0.00496202 
C232     C      0.577880000000     0.312990000000     0.986270000000    -0.00555788 
C233     C      0.497860000000     0.331770000000     0.964240000000    -0.0535111  
C234     C      0.484880000000     0.337870000000     0.053860000000    -0.053295   
C235     C      0.515260000000     0.334100000000     0.997210000000     0.0619042  
C236     C      0.550290000000     0.358870000000     0.987460000000    -0.0308377  
C237     C      0.467470000000     0.335350000000     0.020940000000     0.0610185  
C238     C      0.429500000000     0.314810000000     0.019950000000    -0.0832012  
C239     C      0.474160000000     0.332570000000     0.975790000000    -0.0551311  
C240     C      0.404850000000     0.315450000000     0.040600000000     0.169795   
C241     C      0.408170000000     0.362830000000     0.040650000000    -0.00233108 
C242     C      0.508580000000     0.337450000000     0.042220000000    -0.0559559  
C243     C      0.315700000000     0.589290000000     0.967620000000    -0.0340158  
C244     C      0.292680000000     0.460550000000     0.041530000000    -0.0304765  
C245     C      0.310980000000     0.434630000000     0.963270000000    -0.00481152 
C246     C      0.286370000000     0.433100000000     0.033620000000    -0.00577143 
C247     C      0.284140000000     0.515830000000     0.980440000000    -0.0533907  
C248     C      0.320510000000     0.536160000000     0.031730000000    -0.0530444  
C249     C      0.299620000000     0.499870000000     0.003240000000     0.0620042  
C250     C      0.316510000000     0.461920000000     0.973970000000    -0.0307333  
C251     C      0.305110000000     0.552120000000     0.008770000000     0.0612182  
C252     C      0.288910000000     0.592350000000     0.029490000000    -0.0839872  
C253     C      0.286830000000     0.541760000000     0.982990000000    -0.0553026  
C254     C      0.295830000000     0.619500000000     0.039860000000     0.171654   
C255     C      0.325110000000     0.615700000000     0.974300000000     2.50486e-05
C256     C      0.317900000000     0.510250000000     0.029000000000    -0.0558989  
H1       H      0.151250000000     0.061010000000     0.486750000000     0.0422053  
H2       H      0.201740000000     0.979360000000     0.474540000000     0.037837   
H3       H      0.150050000000     0.978260000000     0.575760000000     0.0503601  
H4       H      0.209870000000     0.127670000000     0.530590000000     0.0385507  
H5       H      0.179820000000     0.942890000000     0.456820000000     0.040592   
H6       H      0.155680000000     0.086510000000     0.593020000000     0.0363013  
H7       H      0.204010000000     0.090620000000     0.485470000000     0.0366999  
H8       H      0.148150000000     0.132520000000     0.586880000000     0.0449746  
H9       H      0.148370000000     0.015490000000     0.478490000000     0.0461382  
H10      H      0.206290000000     0.932340000000     0.482990000000     0.0489255  
H11      H      0.206970000000     0.051410000000     0.583370000000     0.0461571  
H12      H      0.208780000000     0.968520000000     0.530280000000     0.0411319  
H13      H      0.196790000000     0.136730000000     0.478080000000     0.0467222  
H14      H      0.140990000000     0.941570000000     0.534130000000     0.00232319 
H15      H      0.145260000000     0.095990000000     0.538330000000     0.0395645  
H16      H      0.173720000000     0.098410000000     0.474950000000     0.0396668  
H17      H      0.203960000000     0.005840000000     0.575360000000     0.0429256  
H18      H      0.179570000000     0.968430000000     0.587830000000     0.0613105  
H19      H      0.177730000000     0.124830000000     0.602400000000     0.0377095  
H20      H      0.140480000000     0.932520000000     0.605140000000     0.141717   
H21      H      0.970700000000     0.867560000000     0.488620000000     0.0418571  
H22      H      0.049110000000     0.835110000000     0.555870000000     0.0371259  
H23      H      0.051820000000     0.849500000000     0.416330000000     0.0506102  
H24      H      0.915080000000     0.794460000000     0.510230000000     0.0387568  
H25      H      0.081710000000     0.862920000000     0.547040000000     0.039464   
H26      H      0.949960000000     0.830870000000     0.403280000000     0.0362712  
H27      H      0.947760000000     0.816660000000     0.543300000000     0.0364483  
H28      H      0.906170000000     0.834610000000     0.400990000000     0.0444367  
H29      H      0.012690000000     0.876990000000     0.494440000000     0.045733   
H30      H      0.093070000000     0.832330000000     0.558530000000     0.0467922  
H31      H      0.986850000000     0.789980000000     0.464980000000     0.0460949  
H32      H      0.061420000000     0.812200000000     0.518550000000     0.0403365  
H33      H      0.903960000000     0.820220000000     0.542230000000     0.046585   
H34      H      0.084350000000     0.872710000000     0.445920000000     0.00196716 
H35      H      0.938680000000     0.854710000000     0.440010000000     0.038868   
H36      H      0.937370000000     0.846350000000     0.522270000000     0.0394082  
H37      H      0.028830000000     0.799390000000     0.470860000000     0.0424871  
H38      H      0.062470000000     0.820250000000     0.438490000000     0.0604527  
H39      H      0.916540000000     0.804020000000     0.416280000000     0.0381851  
H40      H      0.094840000000     0.853550000000     0.385190000000     0.141483   
H41      H      0.800120000000     0.984950000000     0.554880000000     0.0415886  
H42      H      0.841730000000     0.072640000000     0.570390000000     0.0364878  
H43      H      0.784230000000     0.070010000000     0.480220000000     0.0513394  
H44      H      0.863480000000     0.928700000000     0.491630000000     0.0381545  
H45      H      0.815810000000     0.106860000000     0.589430000000     0.0355554  
H46      H      0.800500000000     0.965130000000     0.445010000000     0.0365143  
H47      H      0.854320000000     0.961680000000     0.543140000000     0.0358707  
H48      H      0.798820000000     0.918050000000     0.443310000000     0.0459124  
H49      H      0.793170000000     0.029450000000     0.570190000000     0.0453792  
H50      H      0.842330000000     0.119180000000     0.565970000000     0.0452978  
H51      H      0.848470000000     0.005050000000     0.450060000000     0.0460852  
H52      H      0.845520000000     0.084280000000     0.514000000000     0.0410273  
H53      H      0.852380000000     0.914450000000     0.541760000000     0.0434394  
H54      H      0.777840000000     0.105530000000     0.529420000000     0.000890727
H55      H      0.794820000000     0.950850000000     0.498750000000     0.0384936  
H56      H      0.825820000000     0.948900000000     0.555350000000     0.0377931  
H57      H      0.841360000000     0.049460000000     0.464960000000     0.0427766  
H58      H      0.811790000000     0.082410000000     0.460890000000     0.061895   
H59      H      0.825300000000     0.931360000000     0.421570000000     0.0397162  
H60      H      0.766470000000     0.113670000000     0.461360000000     0.140927   
H61      H      0.958120000000     0.196600000000     0.550510000000     0.0420676  
H62      H      0.036460000000     0.183120000000     0.471010000000     0.0365443  
H63      H      0.036930000000     0.248520000000     0.550420000000     0.0506893  
H64      H      0.902050000000     0.211150000000     0.419670000000     0.0377968  
H65      H      0.069980000000     0.178520000000     0.519190000000     0.0379719  
H66      H      0.930930000000     0.251800000000     0.527610000000     0.0364477  
H67      H      0.937260000000     0.188990000000     0.442020000000     0.0362844  
H68      H      0.887430000000     0.245100000000     0.532270000000     0.0458034  
H69      H      0.000520000000     0.193790000000     0.563820000000     0.0457758  
H70      H      0.080190000000     0.185440000000     0.463770000000     0.0441666  
H71      H      0.970450000000     0.243510000000     0.435060000000     0.0458501  
H72      H      0.046970000000     0.212190000000     0.447820000000     0.0398128  
H73      H      0.893950000000     0.181960000000     0.445260000000     0.0461878  
H74      H      0.071090000000     0.225970000000     0.575060000000     0.00302208 
H75      H      0.922940000000     0.221350000000     0.548800000000     0.0394063  
H76      H      0.926590000000     0.184380000000     0.498330000000     0.0396795  
H77      H      0.012850000000     0.240520000000     0.448130000000     0.0423024  
H78      H      0.046690000000     0.249840000000     0.493110000000     0.0600199  
H79      H      0.897640000000     0.252870000000     0.477020000000     0.03778    
H80      H      0.079380000000     0.265390000000     0.567810000000     0.14213    
H81      H      0.772430000000     0.806200000000     0.714930000000     0.0417187  
H82      H      0.693770000000     0.781480000000     0.793180000000     0.0366728  
H83      H      0.749590000000     0.730550000000     0.814070000000     0.0511476  
H84      H      0.753530000000     0.803980000000     0.548660000000     0.0376147  
H85      H      0.696730000000     0.775470000000     0.873260000000     0.0367799  
H86      H      0.791000000000     0.759440000000     0.643730000000     0.0365551  
H87      H      0.739130000000     0.815010000000     0.622040000000     0.035951   
H88      H      0.815920000000     0.778420000000     0.583570000000     0.0464193  
H89      H      0.755280000000     0.794330000000     0.787370000000     0.0455735  
H90      H      0.670550000000     0.760580000000     0.853390000000     0.0466038  
H91      H      0.730890000000     0.749740000000     0.649210000000     0.0459682  
H92      H      0.689050000000     0.748580000000     0.783520000000     0.0409835  
H93      H      0.764040000000     0.834720000000     0.561980000000     0.0432283  
H94      H      0.734640000000     0.739760000000     0.888020000000     0.00169995 
H95      H      0.798160000000     0.791810000000     0.653650000000     0.0389887  
H96      H      0.767860000000     0.824250000000     0.641160000000     0.0380417  
H97      H      0.713890000000     0.737740000000     0.721600000000     0.0427508  
H98      H      0.721640000000     0.719110000000     0.794770000000     0.0616873  
H99      H      0.788700000000     0.765780000000     0.563580000000     0.0388624  
H100     H      0.743300000000     0.700370000000     0.882400000000     0.141617   
H101     H      0.740610000000     0.778340000000     0.296380000000     0.0417576  
H102     H      0.710950000000     0.782020000000     0.134580000000     0.0366884  
H103     H      0.726390000000     0.707860000000     0.175260000000     0.0509813  
H104     H      0.819850000000     0.822340000000     0.290860000000     0.0392052  
H105     H      0.676420000000     0.757470000000     0.118410000000     0.0378109  
H106     H      0.792860000000     0.749850000000     0.312250000000     0.0363633  
H107     H      0.781120000000     0.822080000000     0.257230000000     0.0363276  
H108     H      0.812450000000     0.768790000000     0.379440000000     0.0448986  
H109     H      0.711290000000     0.761170000000     0.244520000000     0.0456236  
H110     H      0.690170000000     0.766260000000     0.066690000000     0.0448632  
H111     H      0.794030000000     0.769000000000     0.195970000000     0.0461112  
H112     H      0.729140000000     0.762680000000     0.099560000000     0.040582   
H113     H      0.800770000000     0.841720000000     0.323600000000     0.0465784  
H114     H      0.687150000000     0.706370000000     0.144360000000     0.00149973 
H115     H      0.774390000000     0.771390000000     0.342290000000     0.0384912  
H116     H      0.767480000000     0.813980000000     0.309820000000     0.0390102  
H117     H      0.764650000000     0.752290000000     0.143830000000     0.0425988  
H118     H      0.738490000000     0.719750000000     0.123670000000     0.0608747  
H119     H      0.827580000000     0.774420000000     0.327660000000     0.0385292  
H120     H      0.707030000000     0.673670000000     0.124480000000     0.140513   
H121     H      0.762680000000     0.290630000000     0.695580000000     0.0419865  
H122     H      0.688730000000     0.302150000000     0.792400000000     0.0366478  
H123     H      0.751300000000     0.301270000000     0.869170000000     0.0508093  
H124     H      0.753190000000     0.202460000000     0.633150000000     0.0383551  
H125     H      0.687960000000     0.339320000000     0.838130000000     0.0373708  
H126     H      0.796980000000     0.241530000000     0.724950000000     0.0363805  
H127     H      0.732150000000     0.239630000000     0.655080000000     0.0363336  
H128     H      0.817740000000     0.225840000000     0.656290000000     0.0457319  
H129     H      0.744710000000     0.317380000000     0.752700000000     0.0456659  
H130     H      0.666360000000     0.317750000000     0.858390000000     0.0444124  
H131     H      0.740350000000     0.225110000000     0.768440000000     0.0459218  
H132     H      0.690870000000     0.281920000000     0.840790000000     0.0404199  
H133     H      0.752420000000     0.223660000000     0.586330000000     0.0460754  
H134     H      0.730450000000     0.338450000000     0.892150000000     0.00226509 
H135     H      0.792970000000     0.261090000000     0.676100000000     0.0391277  
H136     H      0.755160000000     0.259940000000     0.635290000000     0.0392737  
H137     H      0.722170000000     0.251820000000     0.825260000000     0.0424454  
H138     H      0.727400000000     0.281090000000     0.884890000000     0.0605397  
H139     H      0.797640000000     0.203870000000     0.680610000000     0.0379815  
H140     H      0.746680000000     0.320200000000     0.949500000000     0.139641   
H141     H      0.747440000000     0.292450000000     0.189990000000     0.0425123  
H142     H      0.766160000000     0.284650000000     0.361050000000     0.0366106  
H143     H      0.767190000000     0.215980000000     0.290900000000     0.0513825  
H144     H      0.662920000000     0.322140000000     0.184150000000     0.0376253  
H145     H      0.803240000000     0.265070000000     0.378750000000     0.0360108  
H146     H      0.700870000000     0.256240000000     0.156940000000     0.0370296  
H147     H      0.699360000000     0.325520000000     0.225710000000     0.0361488  
H148     H      0.682260000000     0.276230000000     0.089400000000     0.0473807  
H149     H      0.776100000000     0.276160000000     0.244360000000     0.0457543  
H150     H      0.785010000000     0.264340000000     0.427590000000     0.0453909  
H151     H      0.691110000000     0.265450000000     0.273040000000     0.0460371  
H152     H      0.749780000000     0.258420000000     0.382640000000     0.0409872  
H153     H      0.680610000000     0.346150000000     0.159040000000     0.045613   
H154     H      0.803860000000     0.217910000000     0.331930000000     0.00120057 
H155     H      0.717510000000     0.282150000000     0.134820000000     0.0408336  
H156     H      0.716590000000     0.323000000000     0.175320000000     0.0394662  
H157     H      0.719740000000     0.249210000000     0.327420000000     0.0427603  
H158     H      0.750110000000     0.218570000000     0.341370000000     0.0617334  
H159     H      0.663960000000     0.276160000000     0.138280000000     0.0382947  
H160     H      0.789690000000     0.180270000000     0.332930000000     0.141426   
H161     H      0.640210000000     0.490920000000     0.955500000000     0.0419538  
H162     H      0.632660000000     0.579250000000     0.024430000000     0.0366208  
H163     H      0.678020000000     0.576750000000     0.912390000000     0.0514509  
H164     H      0.677430000000     0.439610000000     0.080220000000     0.0385291  
H165     H      0.620320000000     0.611920000000     0.972970000000     0.035183   
H166     H      0.696910000000     0.468670000000     0.954420000000     0.036548   
H167     H      0.650600000000     0.473820000000     0.065030000000     0.0362439  
H168     H      0.695460000000     0.421900000000     0.958500000000     0.0456748  
H169     H      0.631640000000     0.534760000000     0.936980000000     0.0453953  
H170     H      0.632730000000     0.625750000000     0.022350000000     0.0462247  
H171     H      0.697750000000     0.514470000000     0.039390000000     0.046261   
H172     H      0.661680000000     0.592370000000     0.029390000000     0.0424305  
H173     H      0.648650000000     0.427130000000     0.070400000000     0.0465725  
H174     H      0.650730000000     0.610910000000     0.898900000000     0.0008686  
H175     H      0.667640000000     0.456300000000     0.948610000000     0.0393619  
H176     H      0.640220000000     0.459330000000     0.014140000000     0.03963    
H177     H      0.689230000000     0.558280000000     0.020800000000     0.0434164  
H178     H      0.688400000000     0.590520000000     0.963850000000     0.0624869  
H179     H      0.707820000000     0.436220000000     0.007630000000     0.0384315  
H180     H      0.685640000000     0.620320000000     0.875600000000     0.141365   
H181     H      0.272120000000     0.746480000000     0.771220000000     0.0424924  
H182     H      0.197220000000     0.772070000000     0.681570000000     0.0371977  
H183     H      0.252750000000     0.824380000000     0.673390000000     0.0512965  
H184     H      0.247860000000     0.747370000000     0.934860000000     0.0386389  
H185     H      0.203480000000     0.779820000000     0.602680000000     0.0380891  
H186     H      0.288720000000     0.791600000000     0.846800000000     0.0371976  
H187     H      0.234860000000     0.737390000000     0.859600000000     0.0368076  
H188     H      0.311360000000     0.771170000000     0.908930000000     0.048384   
H189     H      0.257780000000     0.759540000000     0.696990000000     0.0459832  
H190     H      0.176230000000     0.793710000000     0.618960000000     0.0475985  
H191     H      0.228380000000     0.802150000000     0.833180000000     0.0463943  
H192     H      0.191500000000     0.804650000000     0.692530000000     0.041436   
H193     H      0.257230000000     0.716170000000     0.921740000000     0.0460608  
H194     H      0.241050000000     0.816400000000     0.596680000000     0.00143701 
H195     H      0.295480000000     0.759230000000     0.835950000000     0.0406054  
H196     H      0.263770000000     0.727340000000     0.843330000000     0.0394954  
H197     H      0.214010000000     0.815170000000     0.759020000000     0.0431885  
H198     H      0.223890000000     0.834930000000     0.688630000000     0.0617428  
H199     H      0.283650000000     0.783730000000     0.926190000000     0.0390148  
H200     H      0.248810000000     0.855760000000     0.606160000000     0.1408     
H201     H      0.243010000000     0.758530000000     0.190900000000     0.0424642  
H202     H      0.217070000000     0.764130000000     0.358520000000     0.0370951  
H203     H      0.222490000000     0.833910000000     0.291620000000     0.0514931  
H204     H      0.326280000000     0.725690000000     0.193850000000     0.0386692  
H205     H      0.180590000000     0.786240000000     0.370640000000     0.0389768  
H206     H      0.292370000000     0.793820000000     0.169010000000     0.0366189  
H207     H      0.288600000000     0.722370000000     0.231130000000     0.036674   
H208     H      0.312410000000     0.775300000000     0.102500000000     0.0459762  
H209     H      0.212900000000     0.775160000000     0.241190000000     0.0462689  
H210     H      0.196560000000     0.784290000000     0.422510000000     0.0458001  
H211     H      0.296760000000     0.780860000000     0.284570000000     0.0460835  
H212     H      0.233980000000     0.788820000000     0.384080000000     0.040517   
H213     H      0.308570000000     0.702910000000     0.165280000000     0.0479171  
H214     H      0.184220000000     0.832940000000     0.327020000000     0.0034362  
H215     H      0.275200000000     0.769820000000     0.142020000000     0.0394985  
H216     H      0.272940000000     0.727190000000     0.179110000000     0.0402738  
H217     H      0.266650000000     0.797430000000     0.334900000000     0.0427082  
H218     H      0.237390000000     0.829610000000     0.344520000000     0.061107   
H219     H      0.328700000000     0.771800000000     0.153870000000     0.0384134  
H220     H      0.199640000000     0.869970000000     0.330490000000     0.140437   
H221     H      0.523140000000     0.683540000000     0.980670000000     0.0418268  
H222     H      0.446890000000     0.710620000000     0.054420000000     0.0365001  
H223     H      0.439630000000     0.705900000000     0.913350000000     0.0507673  
H224     H      0.578420000000     0.757450000000     0.003330000000     0.0384188  
H225     H      0.413640000000     0.683810000000     0.041560000000     0.0367161  
H226     H      0.543770000000     0.720670000000     0.898200000000     0.0364456  
H227     H      0.545730000000     0.735710000000     0.037870000000     0.0362388  
H228     H      0.587540000000     0.716820000000     0.896870000000     0.0459036  
H229     H      0.481280000000     0.673760000000     0.986940000000     0.0454794  
H230     H      0.403380000000     0.713180000000     0.062630000000     0.0442432  
H231     H      0.506470000000     0.761660000000     0.963900000000     0.0460191  
H232     H      0.433860000000     0.736190000000     0.023580000000     0.0403926  
H233     H      0.589430000000     0.732480000000     0.038010000000     0.0455289  
H234     H      0.407700000000     0.681340000000     0.942540000000     0.00189986 
H235     H      0.554880000000     0.696800000000     0.935580000000     0.0389337  
H236     H      0.556060000000     0.705760000000     0.018470000000     0.0395186  
H237     H      0.464650000000     0.751970000000     0.971320000000     0.0425265  
H238     H      0.430150000000     0.733670000000     0.942060000000     0.0606016  
H239     H      0.577330000000     0.747380000000     0.912190000000     0.0387173  
H240     H      0.395860000000     0.703690000000     0.885940000000     0.140551   
H241     H      0.258280000000     0.255490000000     0.828670000000     0.042173   
H242     H      0.186410000000     0.261710000000     0.723780000000     0.0370524  
H243     H      0.249810000000     0.250660000000     0.653500000000     0.0505156  
H244     H      0.260310000000     0.343110000000     0.896380000000     0.0385912  
H245     H      0.179150000000     0.225780000000     0.677960000000     0.037704   
H246     H      0.301110000000     0.297160000000     0.807880000000     0.0367394  
H247     H      0.235410000000     0.310240000000     0.869200000000     0.036313   
H248     H      0.321560000000     0.307900000000     0.880790000000     0.0462043  
H249     H      0.237540000000     0.233860000000     0.767780000000     0.0457698  
H250     H      0.163540000000     0.251630000000     0.653880000000     0.0472463  
H251     H      0.249770000000     0.325580000000     0.758580000000     0.0461996  
H252     H      0.193410000000     0.281160000000     0.676180000000     0.0409679  
H253     H      0.255890000000     0.321340000000     0.941450000000     0.0448225  
H254     H      0.224680000000     0.218240000000     0.625590000000     0.00123461 
H255     H      0.292230000000     0.278440000000     0.855280000000     0.0390591  
H256     H      0.254440000000     0.286060000000     0.890710000000     0.0390031  
H257     H      0.228880000000     0.304030000000     0.697940000000     0.0426464  
H258     H      0.230000000000     0.275170000000     0.636570000000     0.0607591  
H259     H      0.307310000000     0.333590000000     0.853170000000     0.0395154  
H260     H      0.243590000000     0.235280000000     0.570360000000     0.14029    
H261     H      0.244890000000     0.258680000000     0.338460000000     0.0431053  
H262     H      0.268060000000     0.265190000000     0.170230000000     0.0370065  
H263     H      0.277420000000     0.332450000000     0.242780000000     0.0512455  
H264     H      0.158060000000     0.239400000000     0.334250000000     0.0376506  
H265     H      0.307530000000     0.280070000000     0.156100000000     0.0368243  
H266     H      0.200900000000     0.300330000000     0.367590000000     0.0374537  
H267     H      0.194870000000     0.232240000000     0.295750000000     0.0366375  
H268     H      0.178670000000     0.281890000000     0.431950000000     0.0484133  
H269     H      0.276580000000     0.271540000000     0.287940000000     0.045948   
H270     H      0.290360000000     0.282550000000     0.105760000000     0.0469003  
H271     H      0.194390000000     0.294160000000     0.251160000000     0.0461709  
H272     H      0.255340000000     0.293630000000     0.148290000000     0.0413231  
H273     H      0.172590000000     0.212950000000     0.359250000000     0.0467779  
H274     H      0.313710000000     0.324260000000     0.202560000000     0.000621606
H275     H      0.214660000000     0.272710000000     0.390580000000     0.0420225  
H276     H      0.211060000000     0.232180000000     0.347860000000     0.0408644  
H277     H      0.226080000000     0.307200000000     0.200830000000     0.0427577  
H278     H      0.260610000000     0.333240000000     0.191450000000     0.0612283  
H279     H      0.161950000000     0.283560000000     0.380800000000     0.038635   
H280     H      0.305850000000     0.363970000000     0.204630000000     0.1388     
H281     H      0.521630000000     0.339870000000     0.068260000000     0.0416414  
H282     H      0.443110000000     0.376370000000     0.028690000000     0.0364071  
H283     H      0.438420000000     0.297350000000     0.031150000000     0.0509373  
H284     H      0.572090000000     0.356270000000     0.928630000000     0.0384977  
H285     H      0.410680000000     0.365780000000     0.077260000000     0.0367407  
H286     H      0.544760000000     0.296200000000     0.004050000000     0.0364119  
H287     H      0.539230000000     0.373100000000     0.970100000000     0.0357768  
H288     H      0.588670000000     0.299780000000     0.006480000000     0.0448411  
H289     H      0.480020000000     0.340430000000     0.088610000000     0.0453814  
H290     H      0.399660000000     0.379890000000     0.026700000000     0.045545   
H291     H      0.502720000000     0.329600000000     0.929410000000     0.0459323  
H292     H      0.430160000000     0.360280000000     0.981660000000     0.0410186  
H293     H      0.582890000000     0.377210000000     0.970930000000     0.0442573  
H294     H      0.406590000000     0.312260000000     0.077480000000     0.000186283
H295     H      0.555360000000     0.319180000000     0.043340000000     0.0381513  
H296     H      0.552120000000     0.364420000000     0.023270000000     0.0387049  
H297     H      0.461120000000     0.331170000000     0.949490000000     0.0425449  
H298     H      0.427800000000     0.314220000000     0.982740000000     0.0607713  
H299     H      0.576120000000     0.305120000000     0.951970000000     0.0385467  
H300     H      0.395500000000     0.280540000000     0.037490000000     0.139451   
H301     H      0.330240000000     0.498350000000     0.046570000000     0.0423506  
H302     H      0.329750000000     0.577830000000     0.952040000000     0.0366372  
H303     H      0.282980000000     0.583320000000     0.061190000000     0.0503292  
H304     H      0.296400000000     0.434100000000     0.938460000000     0.037626   
H305     H      0.342990000000     0.614450000000     0.989130000000     0.0378298  
H306     H      0.277890000000     0.469640000000     0.059420000000     0.037063   
H307     H      0.319470000000     0.472060000000     0.941820000000     0.0362139  
H308     H      0.285010000000     0.423450000000     0.066600000000     0.0496909  
H309     H      0.334740000000     0.543880000000     0.051410000000     0.0458498  
H310     H      0.326960000000     0.624790000000     0.940870000000     0.04412    
H311     H      0.270120000000     0.508100000000     0.960240000000     0.045972   
H312     H      0.300530000000     0.589800000000     0.943990000000     0.039942   
H313     H      0.326610000000     0.426000000000     0.947420000000     0.0460803  
H314     H      0.306500000000     0.619530000000     0.071320000000     0.00340838 
H315     H      0.308490000000     0.461450000000     0.063450000000     0.0402883  
H316     H      0.332950000000     0.462810000000     0.994140000000     0.0401468  
H317     H      0.274840000000     0.553670000000     0.964570000000     0.0423995  
H318     H      0.273880000000     0.592200000000     0.005520000000     0.0600987  
H319     H      0.268870000000     0.432270000000     0.017180000000     0.03882    
H320     H      0.269970000000     0.630240000000     0.077450000000     0.142082   
In1      In     0.322710000000     0.348650000000     0.023140000000     2.40678    
In2      In     0.325470000000     0.705270000000     0.010800000000     2.40295    
In3      In     0.658660000000     0.347490000000     0.006120000000     2.39025    
In4      In     0.659330000000     0.704010000000     0.972450000000     2.41369    
In5      In     0.819170000000     0.196840000000     0.506210000000     2.40556    
In6      In     0.831970000000     0.837830000000     0.470310000000     2.40123    
In7      In     0.168440000000     0.853200000000     0.503310000000     2.41493    
In8      In     0.155440000000     0.210510000000     0.513780000000     2.41153    
N1       N      0.175080000000     0.928200000000     0.522090000000    -0.181158   
N2       N      0.173370000000     0.980670000000     0.520550000000    -0.107117   
N3       N      0.181600000000     0.086220000000     0.541850000000    -0.113293   
N4       N      0.174340000000     0.138230000000     0.535970000000    -0.168326   
N5       N      0.097680000000     0.845840000000     0.491130000000    -0.182856   
N6       N      0.048330000000     0.845390000000     0.486880000000    -0.107444   
N7       N      0.951220000000     0.821580000000     0.472760000000    -0.113295   
N8       N      0.901970000000     0.824050000000     0.470330000000    -0.168244   
N9       N      0.811440000000     0.121640000000     0.524080000000    -0.182982   
N10      N      0.811770000000     0.068700000000     0.528330000000    -0.108032   
N11      N      0.829280000000     0.965890000000     0.490600000000    -0.113069   
N12      N      0.829570000000     0.913410000000     0.484300000000    -0.167735   
N13      N      0.084110000000     0.214850000000     0.512210000000    -0.182615   
N14      N      0.034640000000     0.214080000000     0.515430000000    -0.107505   
N15      N      0.936400000000     0.221920000000     0.481850000000    -0.113337   
N16      N      0.887420000000     0.215120000000     0.484200000000    -0.168523   
N17      N      0.698600000000     0.736000000000     0.873980000000    -0.181962   
N18      N      0.723890000000     0.758690000000     0.803280000000    -0.107844   
N19      N      0.762740000000     0.784830000000     0.633480000000    -0.113251   
N20      N      0.789720000000     0.805250000000     0.563480000000    -0.169284   
N21      N      0.693080000000     0.727410000000     0.085570000000    -0.184117   
N22      N      0.717850000000     0.745730000000     0.160920000000    -0.107736   
N23      N      0.787400000000     0.784770000000     0.279310000000    -0.113365   
N24      N      0.810540000000     0.806360000000     0.353170000000    -0.168174   
N25      N      0.696940000000     0.322530000000     0.900160000000    -0.183344   
N26      N      0.721700000000     0.303110000000     0.825860000000    -0.107699   
N27      N      0.763100000000     0.239340000000     0.695120000000    -0.113206   
N28      N      0.785800000000     0.219470000000     0.619420000000    -0.168114   
N29      N      0.790480000000     0.229020000000     0.394580000000    -0.182328   
N30      N      0.767600000000     0.251990000000     0.320680000000    -0.107829   
N31      N      0.699610000000     0.289280000000     0.196450000000    -0.113325   
N32      N      0.677460000000     0.311790000000     0.121890000000    -0.168429   
N33      N      0.653570000000     0.628210000000     0.962130000000    -0.182984   
N34      N      0.653790000000     0.575290000000     0.966250000000    -0.107987   
N35      N      0.675090000000     0.474010000000     0.011360000000    -0.113414   
N36      N      0.673920000000     0.421450000000     0.017790000000    -0.167255   
N37      N      0.204490000000     0.819300000000     0.604900000000    -0.18271    
N38      N      0.227220000000     0.795590000000     0.678070000000    -0.107708   
N39      N      0.259650000000     0.766820000000     0.851950000000    -0.11325    
N40      N      0.284240000000     0.744280000000     0.923520000000    -0.168598   
N41      N      0.195110000000     0.820730000000     0.391130000000    -0.182499   
N42      N      0.219220000000     0.797520000000     0.319740000000    -0.107754   
N43      N      0.290480000000     0.759450000000     0.205160000000    -0.113488   
N44      N      0.313400000000     0.738180000000     0.131140000000    -0.167287   
N45      N      0.396230000000     0.705950000000     0.992910000000    -0.183501   
N46      N      0.445470000000     0.705420000000     0.983760000000    -0.107695   
N47      N      0.542280000000     0.730000000000     0.967520000000    -0.113398   
N48      N      0.591500000000     0.726850000000     0.966520000000    -0.16853    
N49      N      0.193610000000     0.239040000000     0.617200000000    -0.182061   
N50      N      0.219320000000     0.253840000000     0.693690000000    -0.107499   
N51      N      0.267270000000     0.305780000000     0.833270000000    -0.11298    
N52      N      0.290190000000     0.321400000000     0.912000000000    -0.168504   
N53      N      0.298720000000     0.317310000000     0.139030000000    -0.182889   
N54      N      0.272900000000     0.297120000000     0.211590000000    -0.10804    
N55      N      0.197990000000     0.267900000000     0.326720000000    -0.113339   
N56      N      0.172420000000     0.246890000000     0.398190000000    -0.168145   
N57      N      0.393650000000     0.340260000000     0.034040000000    -0.183963   
N58      N      0.443180000000     0.336700000000     0.034230000000    -0.107834   
N59      N      0.539520000000     0.333990000000     0.983600000000    -0.113284   
N60      N      0.588760000000     0.337930000000     0.982890000000    -0.169616   
N61      N      0.310350000000     0.631050000000     0.004150000000    -0.181457   
N62      N      0.309010000000     0.578750000000     0.011170000000    -0.107179   
N63      N      0.296810000000     0.473200000000     0.998320000000    -0.113289   
N64      N      0.303650000000     0.421110000000     0.004050000000    -0.166941   
O1       O      0.307230000000     0.316330000000     0.063410000000    -0.504681   
O2       O      0.314990000000     0.349850000000     0.098190000000    -0.480173   
O3       O      0.290150000000     0.337380000000     0.983610000000    -0.506818   
O4       O      0.323940000000     0.385520000000     0.984760000000    -0.500614   
O5       O      0.355930000000     0.324690000000     0.027350000000    -0.487026   
O6       O      0.303280000000     0.384070000000     0.043930000000    -0.487165   
O7       O      0.323230000000     0.330640000000     0.953610000000    -0.500001   
O8       O      0.359920000000     0.363980000000     0.029930000000    -0.508022   
O9       O      0.291350000000     0.711100000000     0.971340000000    -0.506228   
O10      O      0.318580000000     0.737640000000     0.962560000000    -0.49817    
O11      O      0.318990000000     0.703710000000     0.086230000000    -0.488436   
O12      O      0.305480000000     0.670560000000     0.033800000000    -0.476192   
O13      O      0.358050000000     0.705110000000     0.966670000000    -0.480219   
O14      O      0.328990000000     0.666720000000     0.979180000000    -0.504772   
O15      O      0.320050000000     0.739490000000     0.054980000000    -0.503075   
O16      O      0.363100000000     0.706600000000     0.037050000000    -0.51214    
O17      O      0.668390000000     0.312400000000     0.046430000000    -0.494967   
O18      O      0.667760000000     0.346950000000     0.080930000000    -0.499436   
O19      O      0.662320000000     0.334830000000     0.933400000000    -0.509418   
O20      O      0.622540000000     0.361520000000     0.984000000000    -0.504649   
O21      O      0.654460000000     0.385590000000     0.039290000000    -0.487786   
O22      O      0.625160000000     0.323800000000     0.005420000000    -0.503792   
O23      O      0.693000000000     0.335370000000     0.973830000000    -0.481754   
O24      O      0.678060000000     0.382860000000     0.984510000000    -0.498831   
O25      O      0.679690000000     0.696680000000     0.037400000000    -0.487321   
O26      O      0.672760000000     0.734330000000     0.019640000000    -0.51037    
O27      O      0.692820000000     0.707280000000     0.931180000000    -0.477769   
O28      O      0.666920000000     0.666810000000     0.937790000000    -0.477826   
O29      O      0.626200000000     0.719700000000     0.004140000000    -0.505567   
O30      O      0.645930000000     0.666010000000     0.996200000000    -0.506865   
O31      O      0.664810000000     0.731970000000     0.915630000000    -0.502386   
O32      O      0.624960000000     0.710580000000     0.934840000000    -0.501045   
O33      O      0.805900000000     0.195470000000     0.434040000000    -0.476046   
O34      O      0.804070000000     0.230260000000     0.467680000000    -0.505354   
O35      O      0.786380000000     0.207830000000     0.545060000000    -0.502855   
O36      O      0.800420000000     0.159810000000     0.493820000000    -0.475504   
O37      O      0.851350000000     0.221730000000     0.516800000000    -0.498834   
O38      O      0.830200000000     0.159280000000     0.536460000000    -0.507087   
O39      O      0.818990000000     0.209280000000     0.579520000000    -0.498428   
O40      O      0.854930000000     0.190110000000     0.474550000000    -0.505074   
O41      O      0.823290000000     0.804140000000     0.426520000000    -0.506805   
O42      O      0.818770000000     0.840280000000     0.398030000000    -0.492398   
O43      O      0.823970000000     0.808220000000     0.523290000000    -0.499176   
O44      O      0.866290000000     0.827980000000     0.505550000000    -0.493943   
O45      O      0.816880000000     0.876280000000     0.453650000000    -0.491666   
O46      O      0.867380000000     0.835150000000     0.435400000000    -0.508253   
O47      O      0.798140000000     0.835990000000     0.511440000000    -0.510538   
O48      O      0.843510000000     0.874310000000     0.503560000000    -0.505345   
O49      O      0.172550000000     0.823470000000     0.557760000000    -0.498647   
O50      O      0.200160000000     0.849620000000     0.549860000000    -0.49061    
O51      O      0.182460000000     0.854860000000     0.431900000000    -0.4747     
O52      O      0.132190000000     0.844770000000     0.531700000000    -0.49581    
O53      O      0.158720000000     0.889690000000     0.537980000000    -0.493623   
O54      O      0.134560000000     0.853390000000     0.462390000000    -0.494322   
O55      O      0.180780000000     0.819320000000     0.463430000000    -0.509535   
O56      O      0.185850000000     0.890870000000     0.489490000000    -0.489199   
O57      O      0.162640000000     0.211540000000     0.438450000000    -0.49935    
O58      O      0.164670000000     0.245770000000     0.474010000000    -0.502771   
O59      O      0.158650000000     0.228570000000     0.582790000000    -0.494969   
O60      O      0.120840000000     0.229100000000     0.533090000000    -0.480316   
O61      O      0.176470000000     0.175490000000     0.497010000000    -0.496494   
O62      O      0.119270000000     0.196880000000     0.491930000000    -0.509642   
O63      O      0.189950000000     0.221920000000     0.546450000000    -0.491256   
O64      O      0.152500000000     0.173400000000     0.551270000000    -0.50855    
O65      O      0.156060000000     0.928210000000     0.592670000000    -0.267878   
O66      O      0.099030000000     0.843060000000     0.411580000000    -0.268757   
O67      O      0.782870000000     0.119490000000     0.465270000000    -0.259984   
O68      O      0.083680000000     0.256520000000     0.539820000000    -0.267749   
O69      O      0.726420000000     0.702730000000     0.875320000000    -0.260703   
O70      O      0.708300000000     0.686640000000     0.100700000000    -0.265812   
O71      O      0.730260000000     0.314270000000     0.946560000000    -0.266663   
O72      O      0.784450000000     0.189230000000     0.360230000000    -0.260228   
O73      O      0.683670000000     0.626580000000     0.906670000000    -0.260316   
O74      O      0.231740000000     0.853020000000     0.610270000000    -0.26503    
O75      O      0.203580000000     0.860620000000     0.358360000000    -0.26249    
O76      O      0.392600000000     0.712860000000     0.914130000000    -0.265877   
O77      O      0.228050000000     0.243470000000     0.573190000000    -0.267348   
O78      O      0.299470000000     0.356840000000     0.176410000000    -0.263163   
O79      O      0.391380000000     0.296230000000     0.021400000000    -0.265459   
O80      O      0.275320000000     0.633590000000     0.046350000000    -0.268094   


