data_structure

_audit_creation_method RASPA-1.0
_audit_creation_date 2023-5-25
_audit_author_name 'Poobodin Mano'

_cell_length_a    48.637
_cell_length_b    41.0643
_cell_length_c    41.8702
_cell_angle_alpha 90
_cell_angle_beta  90
_cell_angle_gamma 90
_cell_volume      83625

_symmetry_cell_setting          triclinic
_symmetry_space_group_name_Hall 'P 1'
_symmetry_space_group_name_H-M  'P 1'
_symmetry_Int_Tables_number     1

_symmetry_equiv_pos_as_xyz 'x,y,z'

loop_
_atom_site_label
_atom_site_type_symbol
_atom_site_fract_x
_atom_site_fract_y
_atom_site_fract_z
_atom_site_charge
Br1      Br     0.032350000000     0.029840000000     0.645560000000    -0.230288   
Br2      Br     0.713520000000     0.703990000000     0.593800000000    -0.235925   
Br3      Br     0.266300000000     0.418300000000     0.553200000000    -0.213691   
Br4      Br     0.359420000000     0.505890000000     0.544660000000    -0.217894   
Br5      Br     0.584480000000     0.055800000000     0.229520000000    -0.234895   
Br6      Br     0.554000000000     0.281930000000     0.258630000000    -0.232239   
Br7      Br     0.283910000000     0.015480000000     0.914860000000    -0.234232   
Br8      Br     0.363050000000     0.840590000000     0.797490000000    -0.233602   
Br9      Br     0.432940000000     0.907240000000     0.013230000000    -0.231974   
Br10     Br     0.943640000000     0.880830000000     0.384150000000    -0.235025   
Br11     Br     0.109400000000     0.802750000000     0.118240000000    -0.233681   
Br12     Br     0.216630000000     0.500940000000     0.418980000000    -0.223394   
Br13     Br     0.072530000000     0.276730000000     0.718610000000    -0.232958   
Br14     Br     0.809750000000     0.277170000000     0.974670000000    -0.232794   
Br15     Br     0.736830000000     0.474170000000     0.897860000000    -0.227805   
Br16     Br     0.853140000000     0.509470000000     0.983040000000    -0.225217   
C1       C      0.867740000000     0.439040000000     0.936290000000     0.415803   
C2       C      0.802230000000     0.356490000000     0.937670000000     0.414576   
C3       C      0.798910000000     0.436000000000     0.872910000000     0.412845   
C4       C      0.868340000000     0.358230000000     0.869410000000     0.404306   
C5       C      0.050990000000     0.614090000000     0.121610000000     0.401599   
C6       C      0.114920000000     0.640380000000     0.188770000000     0.406923   
C7       C      0.098210000000     0.712640000000     0.119670000000     0.409757   
C8       C      0.029100000000     0.692410000000     0.181890000000     0.408749   
C9       C      0.374940000000     0.927190000000     0.962840000000     0.415957   
C10      C      0.312460000000     0.850410000000     0.955570000000     0.404661   
C11      C      0.307200000000     0.936250000000     0.893280000000     0.418134   
C12      C      0.373830000000     0.862100000000     0.878980000000     0.421012   
C13      C      0.602810000000     0.224300000000     0.134670000000     0.412755   
C14      C      0.534110000000     0.155660000000     0.120340000000     0.406333   
C15      C      0.591750000000     0.141060000000     0.201280000000     0.415913   
C16      C      0.533940000000     0.222510000000     0.203040000000     0.416258   
C17      C      0.283280000000     0.470270000000     0.397510000000     0.415881   
C18      C      0.354460000000     0.409180000000     0.386690000000     0.405417   
C19      C      0.359590000000     0.480490000000     0.463570000000     0.415472   
C20      C      0.298260000000     0.405750000000     0.474960000000     0.412763   
C21      C      0.646530000000     0.647530000000     0.683620000000     0.40665    
C22      C      0.574110000000     0.715180000000     0.689780000000     0.401039   
C23      C      0.643570000000     0.717120000000     0.615160000000     0.41349    
C24      C      0.571680000000     0.647160000000     0.615960000000     0.406483   
C25      C      0.876650000000     0.910280000000     0.358800000000     0.41378    
C26      C      0.808350000000     0.983180000000     0.341520000000     0.408853   
C27      C      0.794010000000     0.910590000000     0.408600000000     0.40537    
C28      C      0.864050000000     0.980960000000     0.428440000000     0.408484   
C29      C      0.069380000000     0.190290000000     0.701480000000     0.410247   
C30      C      0.134790000000     0.116460000000     0.695630000000     0.409523   
C31      C      0.060860000000     0.109500000000     0.630690000000     0.421823   
C32      C      0.125030000000     0.183760000000     0.618140000000     0.400417   
C33      C      0.022030000000     0.077850000000     0.562430000000    -0.0312518  
C34      C      0.895500000000     0.000050000000     0.506040000000    -0.0314712  
C35      C      0.898260000000     0.023540000000     0.440360000000    -0.00357026 
C36      C      0.870100000000     0.997850000000     0.484580000000    -0.00409138 
C37      C      0.954620000000     0.010600000000     0.526090000000    -0.0537291  
C38      C      0.959170000000     0.073320000000     0.551630000000    -0.0547749  
C39      C      0.934770000000     0.034330000000     0.518440000000     0.0636998  
C40      C      0.922640000000     0.024360000000     0.463390000000    -0.0315872  
C41      C      0.978800000000     0.049450000000     0.559650000000     0.0652787  
C42      C      0.994960000000     0.070280000000     0.610730000000    -0.0593653  
C43      C      0.976290000000     0.018140000000     0.546710000000    -0.049432   
C44      C      0.020540000000     0.072950000000     0.632040000000     0.120156   
C45      C      0.048770000000     0.080040000000     0.581420000000     0.000883899
C46      C      0.937270000000     0.065640000000     0.531380000000    -0.0517911  
C47      C      0.674590000000     0.789000000000     0.576360000000    -0.0311433  
C48      C      0.761060000000     0.837910000000     0.440460000000    -0.0310182  
C49      C      0.751660000000     0.908020000000     0.441060000000    -0.00476139 
C50      C      0.768600000000     0.858500000000     0.411280000000    -0.00490628 
C51      C      0.700120000000     0.822410000000     0.481970000000    -0.0517803  
C52      C      0.733460000000     0.802920000000     0.532940000000    -0.0502694  
C53      C      0.727630000000     0.832450000000     0.483000000000     0.0631753  
C54      C      0.744880000000     0.885860000000     0.469330000000    -0.0308191  
C55      C      0.706000000000     0.792750000000     0.531810000000     0.0653044  
C56      C      0.685760000000     0.740670000000     0.545500000000    -0.0592869  
C57      C      0.689290000000     0.802810000000     0.506180000000    -0.0551739  
C58      C      0.679480000000     0.718110000000     0.573710000000     0.120388   
C59      C      0.668020000000     0.768830000000     0.606100000000     0.000849762
C60      C      0.744250000000     0.822700000000     0.508850000000    -0.0538961  
C61      C      0.275350000000     0.330570000000     0.512800000000    -0.0306199  
C62      C      0.149980000000     0.257190000000     0.578950000000    -0.0308972  
C63      C      0.165340000000     0.188650000000     0.582560000000    -0.00481549 
C64      C      0.127730000000     0.231060000000     0.581850000000    -0.00515226 
C65      C      0.199250000000     0.276040000000     0.522660000000    -0.0511142  
C66      C      0.227000000000     0.310240000000     0.570600000000    -0.0496746  
C67      C      0.194010000000     0.268740000000     0.554750000000     0.0636648  
C68      C      0.186320000000     0.216240000000     0.579580000000    -0.0308278  
C69      C      0.232230000000     0.317550000000     0.538510000000     0.0659648  
C70      C      0.238510000000     0.370780000000     0.514970000000    -0.0589128  
C71      C      0.218160000000     0.300240000000     0.514490000000    -0.0547607  
C72      C      0.258920000000     0.399010000000     0.511630000000     0.118848   
C73      C      0.297220000000     0.357140000000     0.509670000000     0.000443043
C74      C      0.208050000000     0.286060000000     0.578770000000    -0.0530787  
C75      C      0.411000000000     0.544840000000     0.479480000000    -0.0309792  
C76      C      0.518160000000     0.586250000000     0.596570000000    -0.030962   
C77      C      0.546180000000     0.640540000000     0.565570000000    -0.0047853  
C78      C      0.547210000000     0.595470000000     0.607200000000    -0.00490963 
C79      C      0.490760000000     0.557340000000     0.525740000000    -0.051443   
C80      C      0.439380000000     0.576650000000     0.548970000000    -0.0502573  
C81      C      0.489270000000     0.580890000000     0.549880000000     0.0630719  
C82      C      0.517150000000     0.629300000000     0.556820000000    -0.031079   
C83      C      0.440880000000     0.552890000000     0.525030000000     0.0655608  
C84      C      0.414390000000     0.503250000000     0.520540000000    -0.0591013  
C85      C      0.466830000000     0.543410000000     0.513330000000    -0.055185   
C86      C      0.385610000000     0.490180000000     0.513090000000     0.119044   
C87      C      0.382040000000     0.533870000000     0.470090000000     0.000749699
C88      C      0.463310000000     0.590630000000     0.561330000000    -0.0534499  
C89      C      0.644530000000     0.116230000000     0.256790000000    -0.0304282  
C90      C      0.755250000000     0.998010000000     0.282860000000    -0.0310261  
C91      C      0.789460000000     0.036680000000     0.325670000000    -0.00500573 
C92      C      0.785090000000     0.988150000000     0.289210000000    -0.00501388 
C93      C      0.723420000000     0.067240000000     0.251390000000    -0.0516857  
C94      C      0.675570000000     0.046170000000     0.282170000000    -0.0506085  
C95      C      0.725350000000     0.044710000000     0.276380000000     0.0632101  
C96      C      0.759460000000     0.045010000000     0.318360000000    -0.0309096  
C97      C      0.673650000000     0.068770000000     0.257230000000     0.0652129  
C98      C      0.639750000000     0.074940000000     0.215170000000    -0.0589021  
C99      C      0.697850000000     0.079320000000     0.241890000000    -0.0549563  
C100     C      0.609990000000     0.085280000000     0.208410000000     0.119591   
C101     C      0.614880000000     0.127530000000     0.252070000000     0.000299192
C102     C      0.701170000000     0.034250000000     0.291820000000    -0.0539908  
C103     C      0.476120000000     0.246890000000     0.255720000000    -0.0313379  
C104     C      0.412140000000     0.388930000000     0.332800000000    -0.0312495  
C105     C      0.361590000000     0.358810000000     0.355910000000    -0.0046027  
C106     C      0.387820000000     0.410460000000     0.342400000000    -0.00486511 
C107     C      0.421210000000     0.328540000000     0.274910000000    -0.0516324  
C108     C      0.467050000000     0.308680000000     0.310210000000    -0.0505219  
C109     C      0.423650000000     0.337950000000     0.306940000000     0.0629056  
C110     C      0.387070000000     0.339520000000     0.345990000000    -0.0310635  
C111     C      0.464650000000     0.299370000000     0.278150000000     0.0654409  
C112     C      0.499450000000     0.295430000000     0.236890000000    -0.0595026  
C113     C      0.441460000000     0.309340000000     0.260560000000    -0.0553299  
C114     C      0.525050000000     0.276140000000     0.227060000000     0.120469   
C115     C      0.500500000000     0.225100000000     0.247020000000     0.00141637 
C116     C      0.446720000000     0.327710000000     0.324620000000    -0.0538479  
C117     C      0.249680000000     0.964020000000     0.842790000000    -0.03158    
C118     C      0.192100000000     0.100870000000     0.752030000000    -0.0310954  
C119     C      0.153910000000     0.063750000000     0.712460000000    -0.00461568 
C120     C      0.180040000000     0.116540000000     0.721970000000    -0.00397983 
C121     C      0.201510000000     0.051790000000     0.805080000000    -0.0534796  
C122     C      0.247320000000     0.014370000000     0.788150000000    -0.0546653  
C123     C      0.209500000000     0.049710000000     0.772810000000     0.0636227  
C124     C      0.166910000000     0.050640000000     0.743110000000    -0.0307106  
C125     C      0.239540000000     0.016770000000     0.820470000000     0.0658222  
C126     C      0.283300000000     0.007570000000     0.846970000000    -0.059546   
C127     C      0.216550000000     0.035560000000     0.828650000000    -0.0499999  
C128     C      0.296300000000     0.992470000000     0.876880000000     0.120764   
C129     C      0.260710000000     0.947180000000     0.872710000000     0.00160781 
C130     C      0.232450000000     0.030880000000     0.764630000000    -0.0507955  
C131     C      0.426590000000     0.805200000000     0.848950000000    -0.0312897  
C132     C      0.520390000000     0.773690000000     0.715000000000    -0.0309837  
C133     C      0.553430000000     0.721720000000     0.743060000000    -0.00502775 
C134     C      0.548560000000     0.765720000000     0.700710000000    -0.00504207 
C135     C      0.499160000000     0.802550000000     0.788880000000    -0.0511548  
C136     C      0.446720000000     0.778950000000     0.774200000000    -0.0504453  
C137     C      0.496170000000     0.778670000000     0.765250000000     0.0630513  
C138     C      0.525060000000     0.731670000000     0.755430000000    -0.0309547  
C139     C      0.449740000000     0.802670000000     0.797980000000     0.0655463  
C140     C      0.420420000000     0.848760000000     0.810360000000    -0.0593916  
C141     C      0.476200000000     0.814520000000     0.805170000000    -0.0550554  
C142     C      0.392280000000     0.857940000000     0.824260000000     0.120685   
C143     C      0.398750000000     0.812050000000     0.864470000000     0.00172389 
C144     C      0.469690000000     0.766980000000     0.757900000000    -0.0536181  
C145     C      0.395260000000     0.994340000000     0.015620000000    -0.0314234  
C146     C      0.515160000000     0.091050000000     0.064720000000    -0.0313863  
C147     C      0.488020000000     0.144470000000     0.098070000000    -0.00477666 
C148     C      0.530710000000     0.122800000000     0.071050000000    -0.00407112 
C149     C      0.457070000000     0.070440000000     0.021330000000    -0.051014   
C150     C      0.453710000000     0.014110000000     0.058670000000    -0.0498517  
C151     C      0.470440000000     0.069410000000     0.050930000000     0.0633423  
C152     C      0.473950000000     0.111970000000     0.090790000000    -0.0310614  
C153     C      0.440260000000     0.015180000000     0.029110000000     0.0657215  
C154     C      0.435960000000     0.972500000000     0.989480000000    -0.0592933  
C155     C      0.442090000000     0.043610000000     0.010410000000    -0.0552668  
C156     C      0.421570000000     0.940040000000     0.982420000000     0.120781   
C157     C      0.379200000000     0.962830000000     0.010010000000     0.00122366 
C158     C      0.468700000000     0.040930000000     0.069580000000    -0.053448   
C159     C      0.915350000000     0.871440000000     0.294410000000    -0.0308974  
C160     C      0.990600000000     0.723690000000     0.249430000000    -0.031236   
C161     C      0.990440000000     0.731490000000     0.180200000000    -0.00489771 
C162     C      0.997170000000     0.694710000000     0.227780000000    -0.00445605 
C163     C      0.980140000000     0.794400000000     0.268010000000    -0.0536372  
C164     C      0.923570000000     0.799100000000     0.279100000000    -0.05473    
C165     C      0.962130000000     0.771820000000     0.253740000000     0.0636613  
C166     C      0.984110000000     0.759340000000     0.203350000000    -0.0311801  
C167     C      0.941590000000     0.821640000000     0.293430000000     0.0653987  
C168     C      0.916720000000     0.836640000000     0.341480000000    -0.0591629  
C169     C      0.969870000000     0.819020000000     0.287720000000    -0.0496395  
C170     C      0.910190000000     0.865350000000     0.363690000000     0.120246   
C171     C      0.909320000000     0.901600000000     0.314580000000     0.00067934 
C172     C      0.933850000000     0.774390000000     0.259510000000    -0.0514988  
C173     C      0.138220000000     0.741060000000     0.052900000000    -0.0303563  
C174     C      0.269370000000     0.824250000000     0.021450000000    -0.0305025  
C175     C      0.280480000000     0.803620000000     0.956090000000    -0.00502204 
C176     C      0.298380000000     0.827330000000     0.007620000000    -0.00586657 
C177     C      0.225160000000     0.759840000000     0.036400000000    -0.0517491  
C178     C      0.182390000000     0.805380000000     0.036940000000    -0.0499873  
C179     C      0.228870000000     0.790040000000     0.021500000000     0.063608   
C180     C      0.252030000000     0.801380000000     0.971520000000    -0.0304548  
C181     C      0.178710000000     0.775210000000     0.051930000000     0.0650595  
C182     C      0.156460000000     0.764070000000     0.102400000000    -0.0590416  
C183     C      0.200340000000     0.752380000000     0.051510000000    -0.0547667  
C184     C      0.128430000000     0.761070000000     0.118890000000     0.11951    
C185     C      0.109540000000     0.737630000000     0.067550000000    -0.000606945
C186     C      0.207220000000     0.812830000000     0.021790000000    -0.0537295  
C187     C      0.241490000000     0.492000000000     0.327590000000    -0.0312542  
C188     C      0.154660000000     0.621410000000     0.260900000000    -0.0310176  
C189     C      0.153320000000     0.601500000000     0.194050000000    -0.00497904 
C190     C      0.145720000000     0.645720000000     0.235270000000    -0.00482122 
C191     C      0.170710000000     0.556630000000     0.290750000000    -0.053816   
C192     C      0.227820000000     0.558720000000     0.298410000000    -0.0551693  
C193     C      0.186570000000     0.577480000000     0.271410000000     0.0631631  
C194     C      0.161860000000     0.578830000000     0.221280000000    -0.0310002  
C195     C      0.211930000000     0.538170000000     0.318020000000     0.0654351  
C196     C      0.239440000000     0.536130000000     0.366270000000    -0.0594861  
C197     C      0.183370000000     0.537260000000     0.313920000000    -0.0503896  
C198     C      0.248370000000     0.513650000000     0.393600000000     0.120205   
C199     C      0.250070000000     0.467480000000     0.353170000000     0.000862871
C200     C      0.215140000000     0.578260000000     0.275410000000    -0.051574   
C201     C      0.025690000000     0.214640000000     0.768770000000    -0.0309746  
C202     C      0.917140000000     0.333490000000     0.806370000000    -0.0308201  
C203     C      0.894270000000     0.306870000000     0.865250000000    -0.00593087 
C204     C      0.888450000000     0.344010000000     0.817220000000    -0.00491404 
C205     C      0.945360000000     0.259640000000     0.783400000000    -0.0513059  
C206     C      0.996920000000     0.287600000000     0.794460000000    -0.0503077  
C207     C      0.947470000000     0.286910000000     0.803330000000     0.0633392  
C208     C      0.922740000000     0.298010000000     0.852370000000    -0.0302712  
C209     C      0.994770000000     0.260490000000     0.774320000000     0.0652052  
C210     C      0.017930000000     0.251380000000     0.724030000000    -0.0592442  
C211     C      0.968750000000     0.246450000000     0.768980000000    -0.0549124  
C212     C      0.045770000000     0.242870000000     0.709100000000     0.119822   
C213     C      0.053920000000     0.204680000000     0.755870000000     0.000375382
C214     C      0.973520000000     0.300760000000     0.808930000000    -0.0536541  
C215     C      0.737220000000     0.323660000000     0.967600000000    -0.0313123  
C216     C      0.670790000000     0.251940000000     0.108330000000    -0.0307126  
C217     C      0.613350000000     0.264040000000     0.092180000000    -0.00444199 
C218     C      0.648730000000     0.249850000000     0.134280000000    -0.00501318 
C219     C      0.693580000000     0.314110000000     0.057890000000    -0.0508268  
C220     C      0.716700000000     0.264860000000     0.020370000000    -0.050413   
C221     C      0.684110000000     0.282080000000     0.061100000000     0.0634326  
C222     C      0.636740000000     0.265450000000     0.067780000000    -0.0309773  
C223     C      0.726260000000     0.296870000000     0.017250000000     0.0654546  
C224     C      0.772240000000     0.318090000000     0.008800000000    -0.0600682  
C225     C      0.714390000000     0.321590000000     0.036080000000    -0.0545634  
C226     C      0.795520000000     0.320370000000     0.984180000000     0.121099   
C227     C      0.758890000000     0.325550000000     0.941250000000     0.00116872 
C228     C      0.695730000000     0.257430000000     0.041990000000    -0.0538506  
C229     C      0.760210000000     0.471420000000     0.805410000000    -0.0313427  
C230     C      0.687040000000     0.618410000000     0.752210000000    -0.0304704  
C231     C      0.677860000000     0.600430000000     0.685660000000    -0.00538406 
C232     C      0.680150000000     0.644810000000     0.727670000000    -0.00510549 
C233     C      0.695220000000     0.549420000000     0.778830000000    -0.0538237  
C234     C      0.752230000000     0.541110000000     0.782250000000    -0.0545474  
C235     C      0.712540000000     0.568290000000     0.759240000000     0.0637708  
C236     C      0.684780000000     0.575850000000     0.711870000000    -0.030123   
C237     C      0.734890000000     0.521890000000     0.801490000000     0.0655673  
C238     C      0.762700000000     0.511130000000     0.848310000000    -0.0593686  
C239     C      0.706390000000     0.526410000000     0.799720000000    -0.0500767  
C240     C      0.769470000000     0.484840000000     0.873110000000     0.120176   
C241     C      0.766740000000     0.443270000000     0.828070000000     0.00117982 
C242     C      0.741060000000     0.564050000000     0.761290000000    -0.0511453  
C243     C      0.930440000000     0.484800000000     0.957990000000    -0.0312898  
C244     C      0.995860000000     0.559340000000     0.098360000000    -0.0310086  
C245     C      0.049050000000     0.579650000000     0.073210000000    -0.00534139 
C246     C      0.019630000000     0.566720000000     0.121170000000    -0.00539284 
C247     C      0.983870000000     0.502650000000     0.039500000000    -0.0515376  
C248     C      0.943870000000     0.544730000000     0.015030000000    -0.0503974  
C249     C      0.984980000000     0.535860000000     0.047000000000     0.0629623  
C250     C      0.024350000000     0.571740000000     0.051930000000    -0.0308643  
C251     C      0.942760000000     0.511520000000     0.007530000000     0.0652048  
C252     C      0.901990000000     0.477900000000     0.005200000000    -0.0600914  
C253     C      0.962940000000     0.490460000000     0.020000000000    -0.0551286  
C254     C      0.876320000000     0.470910000000     0.985120000000     0.120711   
C255     C      0.906180000000     0.478150000000     0.935660000000     0.000912555
C256     C      0.964730000000     0.556890000000     0.034640000000    -0.0536303  
H1       H      0.922410000000     0.084280000000     0.525300000000     0.0479317  
H2       H      0.026840000000     0.067570000000     0.538460000000     0.040611   
H3       H      0.979480000000     0.054420000000     0.622650000000     0.0613828  
H4       H      0.888290000000     0.047910000000     0.440300000000     0.0411727  
H5       H      0.059010000000     0.055830000000     0.580980000000     0.0550064  
H6       H      0.888570000000     0.003140000000     0.531190000000     0.0400142  
H7       H      0.935970000000     0.045380000000     0.456880000000     0.0397264  
H8       H      0.858570000000     0.975280000000     0.490590000000     0.0484033  
H9       H      0.014740000000     0.086520000000     0.654010000000     0.0329418  
H10      H      0.960940000000     0.097920000000     0.560650000000     0.0434779  
H11      H      0.062660000000     0.097670000000     0.569340000000     0.0461053  
H12      H      0.953550000000     0.986430000000     0.515880000000     0.0478724  
H13      H      0.013420000000     0.102760000000     0.559050000000     0.0396613  
H14      H      0.906070000000     0.018750000000     0.415840000000     0.0494656  
H15      H      0.907150000000     0.976780000000     0.504300000000     0.0437984  
H16      H      0.934920000000     0.001620000000     0.460660000000     0.0455945  
H17      H      0.991500000000     0.999710000000     0.552230000000     0.0564691  
H18      H      0.985770000000     0.094970000000     0.608210000000     0.044754   
H19      H      0.856480000000     0.018930000000     0.489870000000     0.0403797  
H20      H      0.765480000000     0.830400000000     0.510420000000     0.0457061  
H21      H      0.682200000000     0.813280000000     0.584200000000     0.0400392  
H22      H      0.701570000000     0.729030000000     0.530000000000     0.06127    
H23      H      0.732650000000     0.911700000000     0.426760000000     0.0387536  
H24      H      0.686080000000     0.769480000000     0.622370000000     0.0531848  
H25      H      0.755180000000     0.813120000000     0.432140000000     0.0395974  
H26      H      0.727100000000     0.896490000000     0.482430000000     0.0383838  
H27      H      0.787140000000     0.847890000000     0.399740000000     0.0480088  
H28      H      0.669280000000     0.695900000000     0.564190000000     0.0345597  
H29      H      0.746500000000     0.795520000000     0.552610000000     0.0558889  
H30      H      0.650480000000     0.780380000000     0.618860000000     0.046969   
H31      H      0.687060000000     0.829920000000     0.462370000000     0.0479144  
H32      H      0.655400000000     0.792720000000     0.562280000000     0.0399458  
H33      H      0.758260000000     0.932170000000     0.450310000000     0.0477484  
H34      H      0.779470000000     0.835630000000     0.456100000000     0.0427318  
H35      H      0.762810000000     0.885100000000     0.485860000000     0.0423611  
H36      H      0.667940000000     0.795510000000     0.504880000000     0.0438473  
H37      H      0.666730000000     0.743640000000     0.530990000000     0.0461658  
H38      H      0.751390000000     0.857210000000     0.393840000000     0.0392585  
H39      H      0.204290000000     0.280980000000     0.603760000000     0.0471636  
H40      H      0.284660000000     0.309360000000     0.525340000000     0.0408958  
H41      H      0.220360000000     0.379210000000     0.528900000000     0.0644159  
H42      H      0.161370000000     0.178550000000     0.558360000000     0.0410358  
H43      H      0.306130000000     0.361890000000     0.533670000000     0.0581117  
H44      H      0.141350000000     0.278120000000     0.565350000000     0.0419356  
H45      H      0.204580000000     0.206880000000     0.566440000000     0.0389859  
H46      H      0.110390000000     0.240940000000     0.596200000000     0.05363    
H47      H      0.249060000000     0.418220000000     0.496820000000     0.043353   
H48      H      0.237610000000     0.323430000000     0.589310000000     0.0579018  
H49      H      0.314050000000     0.348010000000     0.494090000000     0.0495986  
H50      H      0.188540000000     0.262960000000     0.503960000000     0.0485716  
H51      H      0.269010000000     0.322570000000     0.488470000000     0.0403901  
H52      H      0.174320000000     0.168900000000     0.597430000000     0.0485405  
H53      H      0.155640000000     0.265880000000     0.603280000000     0.0457824  
H54      H      0.193050000000     0.223720000000     0.603930000000     0.0425568  
H55      H      0.221720000000     0.305500000000     0.489510000000     0.0446685  
H56      H      0.231170000000     0.363740000000     0.490740000000     0.048717   
H57      H      0.119790000000     0.225470000000     0.557550000000     0.0413037  
H58      H      0.461590000000     0.608800000000     0.579950000000     0.0451399  
H59      H      0.412850000000     0.571390000000     0.474570000000     0.0406858  
H60      H      0.419140000000     0.498640000000     0.546160000000     0.0619461  
H61      H      0.560880000000     0.630360000000     0.547850000000     0.0417914  
H62      H      0.366870000000     0.550510000000     0.481410000000     0.0561237  
H63      H      0.515300000000     0.559650000000     0.600550000000     0.0396577  
H64      H      0.513530000000     0.634820000000     0.531130000000     0.0386479  
H65      H      0.548800000000     0.591990000000     0.633470000000     0.0471523  
H66      H      0.386210000000     0.463200000000     0.515320000000     0.0362345  
H67      H      0.419560000000     0.584140000000     0.558200000000     0.0571483  
H68      H      0.379740000000     0.536300000000     0.443770000000     0.0472584  
H69      H      0.510580000000     0.549640000000     0.516700000000     0.0482975  
H70      H      0.426310000000     0.531810000000     0.464370000000     0.0394403  
H71      H      0.547090000000     0.667540000000     0.563730000000     0.0459993  
H72      H      0.502940000000     0.599510000000     0.611610000000     0.0407775  
H73      H      0.501910000000     0.643260000000     0.571190000000     0.0402187  
H74      H      0.468570000000     0.525090000000     0.494870000000     0.0438184  
H75      H      0.429700000000     0.489570000000     0.505990000000     0.0458919  
H76      H      0.562070000000     0.578550000000     0.595710000000     0.0421271  
H77      H      0.702110000000     0.017120000000     0.311420000000     0.0444693  
H78      H      0.650260000000     0.120320000000     0.282220000000     0.0412388  
H79      H      0.642070000000     0.048540000000     0.209780000000     0.0610592  
H80      H      0.802860000000     0.051150000000     0.309480000000     0.0406782  
H81      H      0.601690000000     0.115150000000     0.270040000000     0.056368   
H82      H      0.749660000000     0.990290000000     0.258220000000     0.0392975  
H83      H      0.756930000000     0.071900000000     0.319910000000     0.0386638  
H84      H      0.786720000000     0.961160000000     0.288440000000     0.047322   
H85      H      0.606270000000     0.082950000000     0.182310000000     0.0349556  
H86      H      0.657170000000     0.038050000000     0.294360000000     0.0550713  
H87      H      0.613760000000     0.154140000000     0.256740000000     0.0518283  
H88      H      0.741850000000     0.075680000000     0.239470000000     0.0482626  
H89      H      0.658350000000     0.131250000000     0.241530000000     0.041823   
H90      H      0.794200000000     0.043980000000     0.350640000000     0.0472334  
H91      H      0.741670000000     0.984930000000     0.299990000000     0.0407299  
H92      H      0.746000000000     0.033550000000     0.336710000000     0.0409726  
H93      H      0.696990000000     0.097060000000     0.222810000000     0.0440973  
H94      H      0.653560000000     0.088610000000     0.198740000000     0.0461886  
H95      H      0.798150000000     0.998160000000     0.269740000000     0.0408504  
H96      H      0.448970000000     0.334370000000     0.349490000000     0.0447205  
H97      H      0.465170000000     0.235690000000     0.276330000000     0.0405795  
H98      H      0.505620000000     0.320740000000     0.243210000000     0.0610856  
H99      H      0.346710000000     0.358770000000     0.335740000000     0.0411268  
H100     H      0.512380000000     0.219720000000     0.269090000000     0.0545689  
H101     H      0.423940000000     0.401640000000     0.313740000000     0.0389093  
H102     H      0.380270000000     0.315380000000     0.336810000000     0.0384686  
H103     H      0.395860000000     0.433010000000     0.353770000000     0.0456501  
H104     H      0.532830000000     0.286510000000     0.204230000000     0.0336864  
H105     H      0.484710000000     0.301040000000     0.324060000000     0.0557485  
H106     H      0.492490000000     0.201570000000     0.237730000000     0.0482459  
H107     H      0.403480000000     0.336040000000     0.261100000000     0.0476984  
H108     H      0.461600000000     0.247960000000     0.235180000000     0.0400749  
H109     H      0.351670000000     0.346220000000     0.376410000000     0.0478983  
H110     H      0.425890000000     0.385700000000     0.353820000000     0.0403815  
H111     H      0.400310000000     0.335370000000     0.367300000000     0.0409325  
H112     H      0.439010000000     0.302260000000     0.235820000000     0.0437542  
H113     H      0.485230000000     0.296900000000     0.216100000000     0.0458665  
H114     H      0.376550000000     0.417760000000     0.320430000000     0.0400762  
H115     H      0.238630000000     0.028740000000     0.739870000000     0.0495417  
H116     H      0.227370000000     0.958380000000     0.840680000000     0.041617   
H117     H      0.286090000000     0.034470000000     0.847710000000     0.0616696  
H118     H      0.165530000000     0.054030000000     0.691660000000     0.0438409  
H119     H      0.247320000000     0.953670000000     0.893270000000     0.0531419  
H120     H      0.212840000000     0.111450000000     0.756340000000     0.0402385  
H121     H      0.168810000000     0.023720000000     0.740900000000     0.0410799  
H122     H      0.176200000000     0.142770000000     0.726830000000     0.0489641  
H123     H      0.318940000000     0.995930000000     0.875390000000     0.0344577  
H124     H      0.264690000000     0.999570000000     0.781090000000     0.0459259  
H125     H      0.259280000000     0.920380000000     0.869240000000     0.0491     
H126     H      0.183580000000     0.065710000000     0.812000000000     0.0458682  
H127     H      0.260310000000     0.954040000000     0.821340000000     0.0434024  
H128     H      0.132480000000     0.054430000000     0.710780000000     0.0521457  
H129     H      0.178770000000     0.107000000000     0.772810000000     0.0422434  
H130     H      0.153180000000     0.056040000000     0.763740000000     0.0430938  
H131     H      0.210130000000     0.037290000000     0.853350000000     0.0558132  
H132     H      0.294410000000     0.998280000000     0.825580000000     0.0478792  
H133     H      0.195550000000     0.115050000000     0.702520000000     0.0422527  
H134     H      0.466810000000     0.748540000000     0.739740000000     0.0449359  
H135     H      0.431280000000     0.778830000000     0.851860000000     0.0414011  
H136     H      0.420800000000     0.855010000000     0.784490000000     0.0612131  
H137     H      0.569370000000     0.733080000000     0.758500000000     0.0422037  
H138     H      0.383510000000     0.794250000000     0.855140000000     0.0538002  
H139     H      0.516100000000     0.799990000000     0.710900000000     0.0392538  
H140     H      0.524230000000     0.726610000000     0.781540000000     0.0391728  
H141     H      0.547400000000     0.768570000000     0.674330000000     0.0470968  
H142     H      0.390380000000     0.884930000000     0.823660000000     0.0335961  
H143     H      0.426500000000     0.769590000000     0.768450000000     0.0562605  
H144     H      0.400610000000     0.807930000000     0.890640000000     0.0494189  
H145     H      0.519400000000     0.811750000000     0.794790000000     0.0487325  
H146     H      0.442790000000     0.819390000000     0.861610000000     0.0424468  
H147     H      0.555560000000     0.694850000000     0.745290000000     0.0470392  
H148     H      0.504330000000     0.759250000000     0.702390000000     0.0404324  
H149     H      0.509070000000     0.716550000000     0.743490000000     0.0403805  
H150     H      0.479120000000     0.832800000000     0.823480000000     0.0450048  
H151     H      0.436560000000     0.863590000000     0.822390000000     0.0470322  
H152     H      0.563760000000     0.783710000000     0.709770000000     0.0422885  
H153     H      0.478860000000     0.039480000000     0.092530000000     0.0473258  
H154     H      0.387400000000     0.005920000000     0.037870000000     0.0425394  
H155     H      0.458440000000     0.968130000000     0.992100000000     0.0612934  
H156     H      0.482190000000     0.162260000000     0.079230000000     0.0397899  
H157     H      0.379890000000     0.948010000000     0.032210000000     0.0560592  
H158     H      0.523270000000     0.080080000000     0.042310000000     0.0399545  
H159     H      0.451540000000     0.116480000000     0.087680000000     0.039459   
H160     H      0.552730000000     0.117050000000     0.075410000000     0.0491696  
H161     H      0.428520000000     0.931480000000     0.958550000000     0.0339349  
H162     H      0.452490000000     0.992410000000     0.073300000000     0.0571374  
H163     H      0.357320000000     0.969090000000     0.005370000000     0.0526336  
H164     H      0.458240000000     0.092170000000     0.006730000000     0.0485142  
H165     H      0.391420000000     0.011310000000     0.995360000000     0.0438934  
H166     H      0.480230000000     0.153840000000     0.121280000000     0.0481241  
H167     H      0.519150000000     0.073770000000     0.084690000000     0.0447468  
H168     H      0.476750000000     0.095300000000     0.111510000000     0.043535   
H169     H      0.431900000000     0.045090000000     0.987480000000     0.0456065  
H170     H      0.432980000000     0.989090000000     0.968720000000     0.0470852  
H171     H      0.529510000000     0.138240000000     0.049280000000     0.0399046  
H172     H      0.919750000000     0.757290000000     0.248580000000     0.0484139  
H173     H      0.926930000000     0.879230000000     0.272780000000     0.0409465  
H174     H      0.929250000000     0.818410000000     0.354730000000     0.0616714  
H175     H      0.970680000000     0.720600000000     0.172190000000     0.0404388  
H176     H      0.928920000000     0.914860000000     0.318760000000     0.0545331  
H177     H      0.980750000000     0.714360000000     0.271620000000     0.040066   
H178     H      0.969470000000     0.776340000000     0.191530000000     0.0405554  
H179     H      0.012480000000     0.678850000000     0.239910000000     0.0491126  
H180     H      0.896460000000     0.856370000000     0.383010000000     0.0350527  
H181     H      0.901600000000     0.800750000000     0.282870000000     0.0441467  
H182     H      0.895550000000     0.918010000000     0.300780000000     0.048259   
H183     H      0.002060000000     0.793090000000     0.263790000000     0.0471338  
H184     H      0.895570000000     0.860390000000     0.286520000000     0.0407444  
H185     H      0.001050000000     0.741550000000     0.158850000000     0.0502335  
H186     H      0.010160000000     0.736020000000     0.256120000000     0.0434536  
H187     H      0.003430000000     0.772880000000     0.208560000000     0.0449419  
H188     H      0.983950000000     0.836310000000     0.298400000000     0.0565402  
H189     H      0.897050000000     0.824690000000     0.334550000000     0.0466263  
H190     H      0.978060000000     0.680250000000     0.224360000000     0.0405025  
H191     H      0.209540000000     0.836330000000     0.010400000000     0.0462604  
H192     H      0.135910000000     0.745310000000     0.026780000000     0.0408625  
H193     H      0.167780000000     0.785110000000     0.112800000000     0.0611726  
H194     H      0.290810000000     0.779590000000     0.958470000000     0.0421954  
H195     H      0.097100000000     0.759200000000     0.060610000000     0.0565809  
H196     H      0.271100000000     0.820070000000     0.047640000000     0.0405911  
H197     H      0.240920000000     0.780330000000     0.960850000000     0.0399942  
H198     H      0.308450000000     0.849230000000     0.017970000000     0.0515936  
H199     H      0.132070000000     0.754980000000     0.144420000000     0.0354139  
H200     H      0.165960000000     0.823180000000     0.037090000000     0.0563265  
H201     H      0.099410000000     0.715730000000     0.057310000000     0.0491674  
H202     H      0.241610000000     0.742080000000     0.036340000000     0.04842    
H203     H      0.149660000000     0.717840000000     0.056390000000     0.0397241  
H204     H      0.277980000000     0.808800000000     0.930190000000     0.0515545  
H205     H      0.258140000000     0.847550000000     0.017560000000     0.043283   
H206     H      0.240270000000     0.823960000000     0.966010000000     0.0432798  
H207     H      0.198070000000     0.728900000000     0.062930000000     0.0434916  
H208     H      0.168580000000     0.741660000000     0.107500000000     0.0455898  
H209     H      0.310490000000     0.805620000000     0.014990000000     0.0426447  
H210     H      0.227600000000     0.594020000000     0.260550000000     0.0479201  
H211     H      0.229780000000     0.478770000000     0.308780000000     0.0394559  
H212     H      0.226300000000     0.555950000000     0.376080000000     0.062685   
H213     H      0.172170000000     0.611670000000     0.182820000000     0.0391478  
H214     H      0.231590000000     0.453660000000     0.360940000000     0.0535618  
H215     H      0.164460000000     0.635140000000     0.280800000000     0.0404168  
H216     H      0.176990000000     0.560930000000     0.211790000000     0.0378648  
H217     H      0.129460000000     0.661750000000     0.245350000000     0.0495287  
H218     H      0.262220000000     0.527700000000     0.409630000000     0.0383184  
H219     H      0.249950000000     0.559630000000     0.300860000000     0.0438595  
H220     H      0.264670000000     0.449790000000     0.342350000000     0.04523    
H221     H      0.148620000000     0.555350000000     0.287950000000     0.0451007  
H222     H      0.260220000000     0.502650000000     0.316400000000     0.0392367  
H223     H      0.142280000000     0.587010000000     0.175630000000     0.0454595  
H224     H      0.136120000000     0.608810000000     0.270440000000     0.0419368  
H225     H      0.143510000000     0.565190000000     0.229890000000     0.0406471  
H226     H      0.170920000000     0.521390000000     0.328670000000     0.0556822  
H227     H      0.258100000000     0.547630000000     0.355760000000     0.0466191  
H228     H      0.163620000000     0.661340000000     0.229050000000     0.0411582  
H229     H      0.975710000000     0.321810000000     0.824280000000     0.0451282  
H230     H      0.026160000000     0.212840000000     0.795290000000     0.0411382  
H231     H      0.012320000000     0.276740000000     0.717230000000     0.0611077  
H232     H      0.879590000000     0.287300000000     0.858480000000     0.0444237  
H233     H      0.069960000000     0.218990000000     0.768550000000     0.0546971  
H234     H      0.917900000000     0.334670000000     0.779820000000     0.0395438  
H235     H      0.927710000000     0.272750000000     0.860090000000     0.0404662  
H236     H      0.885480000000     0.370120000000     0.811060000000     0.0483546  
H237     H      0.043170000000     0.242500000000     0.682720000000     0.0358634  
H238     H      0.016790000000     0.298680000000     0.798740000000     0.0561402  
H239     H      0.057430000000     0.178530000000     0.761430000000     0.047566   
H240     H      0.925460000000     0.248720000000     0.778900000000     0.0487496  
H241     H      0.009920000000     0.197290000000     0.759680000000     0.0407184  
H242     H      0.895240000000     0.307690000000     0.891780000000     0.0514495  
H243     H      0.932620000000     0.350880000000     0.816030000000     0.0415487  
H244     H      0.938320000000     0.314750000000     0.862890000000     0.0411806  
H245     H      0.966500000000     0.225520000000     0.753500000000     0.0441507  
H246     H      0.002010000000     0.234830000000     0.713930000000     0.0460264  
H247     H      0.872910000000     0.329700000000     0.803710000000     0.0415999  
H248     H      0.688580000000     0.232540000000     0.043760000000     0.0446736  
H249     H      0.718270000000     0.312590000000     0.957380000000     0.0418987  
H250     H      0.779230000000     0.303000000000     0.029340000000     0.0619265  
H251     H      0.608760000000     0.289220000000     0.100360000000     0.0432243  
H252     H      0.761120000000     0.301040000000     0.930270000000     0.0542733  
H253     H      0.690410000000     0.259860000000     0.119610000000     0.0398522  
H254     H      0.631110000000     0.283380000000     0.048940000000     0.0392682  
H255     H      0.654510000000     0.230380000000     0.151470000000     0.0479938  
H256     H      0.812680000000     0.334410000000     0.995070000000     0.037122   
H257     H      0.725460000000     0.245670000000     0.005840000000     0.0551128  
H258     H      0.751430000000     0.342430000000     0.922370000000     0.051038   
H259     H      0.684680000000     0.333350000000     0.072240000000     0.050086   
H260     H      0.732130000000     0.348750000000     0.975830000000     0.0447745  
H261     H      0.594630000000     0.254360000000     0.080250000000     0.0468854  
H262     H      0.673960000000     0.227270000000     0.097920000000     0.0405589  
H263     H      0.639090000000     0.241130000000     0.056320000000     0.0408309  
H264     H      0.721130000000     0.346600000000     0.033850000000     0.0467057  
H265     H      0.767840000000     0.343000000000     0.017970000000     0.0490325  
H266     H      0.648340000000     0.273310000000     0.147540000000     0.0441109  
H267     H      0.754620000000     0.578420000000     0.746390000000     0.0502141  
H268     H      0.747190000000     0.461910000000     0.785630000000     0.0405488  
H269     H      0.751720000000     0.531530000000     0.860320000000     0.0631828  
H270     H      0.697040000000     0.606470000000     0.672470000000     0.0466253  
H271     H      0.747200000000     0.430820000000     0.834470000000     0.0543638  
H272     H      0.700130000000     0.629430000000     0.771160000000     0.0404886  
H273     H      0.696170000000     0.555190000000     0.700840000000     0.0397763  
H274     H      0.667200000000     0.663690000000     0.739350000000     0.0489012  
H275     H      0.784780000000     0.495120000000     0.890080000000     0.0394459  
H276     H      0.774330000000     0.538180000000     0.783240000000     0.0449751  
H277     H      0.779810000000     0.425320000000     0.815220000000     0.0481998  
H278     H      0.673120000000     0.552260000000     0.777760000000     0.0453751  
H279     H      0.779740000000     0.480710000000     0.794920000000     0.0404424  
H280     H      0.663430000000     0.588850000000     0.668480000000     0.0505063  
H281     H      0.667670000000     0.609650000000     0.763500000000     0.0418945  
H282     H      0.665320000000     0.566200000000     0.722210000000     0.0414768  
H283     H      0.692810000000     0.511850000000     0.814430000000     0.0561759  
H284     H      0.782260000000     0.521020000000     0.838450000000     0.0478919  
H285     H      0.699590000000     0.656660000000     0.719910000000     0.0450162  
H286     H      0.964980000000     0.582620000000     0.040240000000     0.0452371  
H287     H      0.945000000000     0.501450000000     0.945590000000     0.0405137  
H288     H      0.895600000000     0.489140000000     0.028240000000     0.0615546  
H289     H      0.062350000000     0.557680000000     0.074720000000     0.0404245  
H290     H      0.898140000000     0.501820000000     0.926760000000     0.0537772  
H291     H      0.982530000000     0.540480000000     0.109550000000     0.0391723  
H292     H      0.032100000000     0.562000000000     0.028810000000     0.0390182  
H293     H      0.011190000000     0.577370000000     0.143530000000     0.0471813  
H294     H      0.864210000000     0.451710000000     0.997510000000     0.0365898  
H295     H      0.928390000000     0.561170000000     0.005770000000     0.0564905  
H296     H      0.913740000000     0.464230000000     0.914630000000     0.0455041  
H297     H      0.999220000000     0.486160000000     0.048970000000     0.0479653  
H298     H      0.941330000000     0.461470000000     0.962910000000     0.039466   
H299     H      0.061250000000     0.599410000000     0.061860000000     0.0490982  
H300     H      0.983390000000     0.581820000000     0.094960000000     0.0414925  
H301     H      0.012800000000     0.594610000000     0.047040000000     0.0416549  
H302     H      0.962430000000     0.464650000000     0.014780000000     0.0439915  
H303     H      0.912430000000     0.454440000000     0.010810000000     0.0468624  
H304     H      0.029950000000     0.543420000000     0.127430000000     0.0401356  
In1      In     0.834910000000     0.397300000000     0.904080000000     2.4099     
In2      In     0.073230000000     0.664940000000     0.153360000000     2.40401    
In3      In     0.342290000000     0.894160000000     0.921940000000     2.40899    
In4      In     0.565760000000     0.185700000000     0.164500000000     2.40916    
In5      In     0.324520000000     0.441890000000     0.430610000000     2.41256    
In6      In     0.608290000000     0.681670000000     0.650930000000     2.40967    
In7      In     0.835790000000     0.946270000000     0.384440000000     2.41355    
In8      In     0.096490000000     0.149210000000     0.661840000000     2.4003     
N1       N      0.043290000000     0.089140000000     0.614910000000    -0.176931   
N2       N      0.002400000000     0.056740000000     0.579310000000    -0.100334   
N3       N      0.912630000000     0.027930000000     0.496350000000    -0.112334   
N4       N      0.877900000000     0.999060000000     0.450560000000    -0.167337   
N5       N      0.662140000000     0.734620000000     0.597720000000    -0.174985   
N6       N      0.695670000000     0.772350000000     0.557190000000    -0.100507   
N7       N      0.737950000000     0.853020000000     0.457750000000    -0.112747   
N8       N      0.772680000000     0.892760000000     0.420610000000    -0.167868   
N9       N      0.284940000000     0.387520000000     0.497420000000    -0.172172   
N10      N      0.251690000000     0.342970000000     0.531060000000    -0.100382   
N11      N      0.174080000000     0.243820000000     0.562180000000    -0.112505   
N12      N      0.139270000000     0.201060000000     0.595750000000    -0.165405   
N13      N      0.376470000000     0.500310000000     0.480950000000    -0.174538   
N14      N      0.415720000000     0.538330000000     0.513580000000    -0.100331   
N15      N      0.514510000000     0.594100000000     0.562560000000    -0.112353   
N16      N      0.554140000000     0.629080000000     0.597670000000    -0.168278   
N17      N      0.605240000000     0.118830000000     0.219790000000    -0.174599   
N18      N      0.646930000000     0.081430000000     0.248780000000    -0.100731   
N19      N      0.752220000000     0.033580000000     0.286090000000    -0.112748   
N20      N      0.794450000000     0.001800000000     0.319880000000    -0.168574   
N21      N      0.518950000000     0.241050000000     0.223790000000    -0.174323   
N22      N      0.486040000000     0.279560000000     0.264250000000    -0.100451   
N23      N      0.402060000000     0.357340000000     0.321000000000    -0.11256    
N24      N      0.368700000000     0.392840000000     0.363600000000    -0.167849   
N25      N      0.289080000000     0.957650000000     0.879820000000    -0.174975   
N26      N      0.253860000000     0.999380000000     0.845390000000    -0.100329   
N27      N      0.194160000000     0.065410000000     0.747630000000    -0.11209    
N28      N      0.154840000000     0.099640000000     0.711420000000    -0.166452   
N29      N      0.389050000000     0.845270000000     0.857060000000    -0.175125   
N30      N      0.425590000000     0.813750000000     0.814860000000    -0.100339   
N31      N      0.520470000000     0.766540000000     0.749410000000    -0.112316   
N32      N      0.557730000000     0.732770000000     0.709900000000    -0.167007   
N33      N      0.391400000000     0.943780000000     0.983690000000    -0.173293   
N34      N      0.424760000000     0.987070000000     0.018850000000    -0.100368   
N35      N      0.485540000000     0.097730000000     0.061450000000    -0.112417   
N36      N      0.518150000000     0.140620000000     0.097910000000    -0.167088   
N37      N      0.897440000000     0.892330000000     0.345710000000    -0.174376   
N38      N      0.931730000000     0.848080000000     0.313060000000    -0.100464   
N39      N      0.971870000000     0.746300000000     0.232890000000    -0.112512   
N40      N      0.006800000000     0.706200000000     0.196370000000    -0.167647   
N41      N      0.111530000000     0.736250000000     0.102660000000    -0.173786   
N42      N      0.152910000000     0.768580000000     0.067720000000    -0.100586   
N43      N      0.254870000000     0.796820000000     0.006260000000    -0.112716   
N44      N      0.297230000000     0.828420000000     0.972470000000    -0.165899   
N45      N      0.262010000000     0.484150000000     0.381150000000    -0.17478    
N46      N      0.224230000000     0.517500000000     0.341960000000    -0.100633   
N47      N      0.174300000000     0.597930000000     0.247270000000    -0.112634   
N48      N      0.136470000000     0.628650000000     0.206210000000    -0.168619   
N49      N      0.055950000000     0.211370000000     0.721320000000    -0.174277   
N50      N      0.019300000000     0.248240000000     0.759010000000    -0.100365   
N51      N      0.922720000000     0.300090000000     0.817300000000    -0.112352   
N52      N      0.884500000000     0.337930000000     0.851640000000    -0.166988   
N53      N      0.785710000000     0.335680000000     0.954390000000    -0.173693   
N54      N      0.747550000000     0.303650000000     0.994160000000    -0.100211   
N55      N      0.662370000000     0.275460000000     0.083660000000    -0.112163   
N56      N      0.621390000000     0.244300000000     0.120070000000    -0.168033   
N57      N      0.779970000000     0.455010000000     0.857630000000    -0.173469   
N58      N      0.745550000000     0.497280000000     0.822760000000    -0.100468   
N59      N      0.701790000000     0.591500000000     0.736550000000    -0.11194    
N60      N      0.666540000000     0.630650000000     0.699420000000    -0.165822   
N61      N      0.883800000000     0.460850000000     0.952390000000    -0.174629   
N62      N      0.920550000000     0.499860000000     0.987730000000    -0.1002     
N63      N      0.006670000000     0.547410000000     0.067650000000    -0.112671   
N64      N      0.039790000000     0.588310000000     0.105620000000    -0.166898   
O1       O      0.862280000000     0.352480000000     0.898140000000    -0.501809   
O2       O      0.857760000000     0.383850000000     0.858190000000    -0.494332   
O3       O      0.825670000000     0.365150000000     0.947400000000    -0.483506   
O4       O      0.847030000000     0.425610000000     0.948790000000    -0.487099   
O5       O      0.807340000000     0.409310000000     0.861590000000    -0.489832   
O6       O      0.872000000000     0.431350000000     0.907520000000    -0.507505   
O7       O      0.795350000000     0.368330000000     0.911070000000    -0.50104    
O8       O      0.808760000000     0.443290000000     0.899870000000    -0.490852   
O9       O      0.043390000000     0.670570000000     0.195030000000    -0.496397   
O10      O      0.036970000000     0.700380000000     0.154250000000    -0.504914   
O11      O      0.108080000000     0.628600000000     0.162130000000    -0.509783   
O12      O      0.068840000000     0.632550000000     0.109320000000    -0.488035   
O13      O      0.100190000000     0.710210000000     0.149610000000    -0.500643   
O14      O      0.044420000000     0.621200000000     0.149940000000    -0.503403   
O15      O      0.100630000000     0.664310000000     0.197690000000    -0.494451   
O16      O      0.083250000000     0.691300000000     0.106690000000    -0.489252   
O17      O      0.369150000000     0.851360000000     0.906670000000    -0.500782   
O18      O      0.362820000000     0.889250000000     0.872950000000    -0.499462   
O19      O      0.327610000000     0.871390000000     0.968790000000    -0.492194   
O20      O      0.349020000000     0.928630000000     0.963920000000    -0.488246   
O21      O      0.300970000000     0.907120000000     0.899330000000    -0.499519   
O22      O      0.384430000000     0.908940000000     0.941200000000    -0.497733   
O23      O      0.312470000000     0.851380000000     0.925460000000    -0.488906   
O24      O      0.331260000000     0.944200000000     0.901350000000    -0.494275   
O25      O      0.551400000000     0.234610000000     0.184140000000    -0.497514   
O26      O      0.532140000000     0.191830000000     0.202070000000    -0.491613   
O27      O      0.560030000000     0.154240000000     0.120020000000    -0.495507   
O28      O      0.578320000000     0.221370000000     0.125160000000    -0.501997   
O29      O      0.587370000000     0.169860000000     0.210310000000    -0.496606   
O30      O      0.608630000000     0.207710000000     0.159090000000    -0.504729   
O31      O      0.524120000000     0.172260000000     0.142900000000    -0.500084   
O32      O      0.582860000000     0.134570000000     0.173720000000    -0.496191   
O33      O      0.288890000000     0.432440000000     0.464740000000    -0.488935   
O34      O      0.320970000000     0.397330000000     0.462910000000    -0.487757   
O35      O      0.358220000000     0.439000000000     0.392580000000    -0.506766   
O36      O      0.293950000000     0.443550000000     0.389330000000    -0.508999   
O37      O      0.352970000000     0.452310000000     0.472730000000    -0.49842    
O38      O      0.293460000000     0.482800000000     0.422370000000    -0.483405   
O39      O      0.335880000000     0.395870000000     0.403170000000    -0.495531   
O40      O      0.348780000000     0.489170000000     0.437530000000    -0.494338   
O41      O      0.580850000000     0.637340000000     0.642440000000    -0.502314   
O42      O      0.580680000000     0.674570000000     0.607270000000    -0.505655   
O43      O      0.584530000000     0.688140000000     0.697550000000    -0.499414   
O44      O      0.638310000000     0.675250000000     0.692500000000    -0.496836   
O45      O      0.638630000000     0.687480000000     0.609780000000    -0.497004   
O46      O      0.635240000000     0.636940000000     0.658560000000    -0.494951   
O47      O      0.580690000000     0.725120000000     0.662290000000    -0.497347   
O48      O      0.630510000000     0.729060000000     0.638420000000    -0.496191   
O49      O      0.867960000000     0.984000000000     0.398800000000    -0.50071    
O50      O      0.845990000000     0.960290000000     0.435950000000    -0.49836    
O51      O      0.813040000000     0.953300000000     0.337220000000    -0.503261   
O52      O      0.865920000000     0.934210000000     0.344580000000    -0.501728   
O53      O      0.797190000000     0.940410000000     0.414780000000    -0.50235    
O54      O      0.866790000000     0.904430000000     0.386120000000    -0.494412   
O55      O      0.817550000000     0.994490000000     0.367410000000    -0.504315   
O56      O      0.811960000000     0.898630000000     0.390270000000    -0.49934    
O57      O      0.133680000000     0.157180000000     0.629490000000    -0.492173   
O58      O      0.102040000000     0.192920000000     0.628860000000    -0.48109    
O59      O      0.135430000000     0.147030000000     0.692200000000    -0.494243   
O60      O      0.080530000000     0.164380000000     0.711210000000    -0.497821   
O61      O      0.081800000000     0.121630000000     0.617640000000    -0.510547   
O62      O      0.071890000000     0.195380000000     0.671950000000    -0.486252   
O63      O      0.114630000000     0.102530000000     0.682400000000    -0.499951   
O64      O      0.057730000000     0.117330000000     0.659560000000    -0.5008     


