data_structure

_audit_creation_method RASPA-1.0
_audit_creation_date 2023-6-5
_audit_author_name 'Poobodin Mano'

_cell_length_a    53.958
_cell_length_b    58.5593
_cell_length_c    29.0468
_cell_angle_alpha 89.7772
_cell_angle_beta  90.2228
_cell_angle_gamma 89.9997
_cell_volume      91779

_symmetry_cell_setting          triclinic
_symmetry_space_group_name_Hall 'P 1'
_symmetry_space_group_name_H-M  'P 1'
_symmetry_Int_Tables_number     1

_symmetry_equiv_pos_as_xyz 'x,y,z'

loop_
_atom_site_label
_atom_site_type_symbol
_atom_site_fract_x
_atom_site_fract_y
_atom_site_fract_z
_atom_site_charge
C1       C      0.320590000000     0.361250000000     0.982610000000     0.404177   
C2       C      0.321690000000     0.294730000000     0.905980000000     0.406762   
C3       C      0.385790000000     0.325810000000     0.989950000000     0.404343   
C4       C      0.316650000000     0.289780000000     0.046150000000     0.406924   
C5       C      0.331750000000     0.597290000000     0.008170000000     0.407838   
C6       C      0.327290000000     0.664620000000     0.088850000000     0.407528   
C7       C      0.392300000000     0.644310000000     0.011530000000     0.403419   
C8       C      0.317290000000     0.661310000000     0.940970000000     0.40621    
C9       C      0.643690000000     0.323960000000     0.032020000000     0.407472   
C10      C      0.713310000000     0.292620000000     0.968880000000     0.407327   
C11      C      0.706830000000     0.362830000000     0.036160000000     0.404674   
C12      C      0.711250000000     0.293870000000     0.108400000000     0.409005   
C13      C      0.708970000000     0.600690000000     0.027310000000     0.406709   
C14      C      0.726100000000     0.661980000000     0.953760000000     0.40934    
C15      C      0.651370000000     0.651090000000     0.029200000000     0.410422   
C16      C      0.718040000000     0.670490000000     0.101140000000     0.406307   
C17      C      0.840460000000     0.101160000000     0.542160000000     0.406119   
C18      C      0.820370000000     0.166920000000     0.612780000000     0.402135   
C19      C      0.892670000000     0.150390000000     0.535870000000     0.405758   
C20      C      0.821240000000     0.170090000000     0.469000000000     0.402912   
C21      C      0.896410000000     0.808040000000     0.517770000000     0.406517   
C22      C      0.825160000000     0.798430000000     0.608230000000     0.407475   
C23      C      0.844840000000     0.861770000000     0.539700000000     0.409487   
C24      C      0.824000000000     0.791650000000     0.466740000000     0.407408   
C25      C      0.152900000000     0.800180000000     0.494700000000     0.404332   
C26      C      0.228400000000     0.785030000000     0.458010000000     0.40657    
C27      C      0.203000000000     0.856430000000     0.511280000000     0.406509   
C28      C      0.218200000000     0.799130000000     0.600150000000     0.409708   
C29      C      0.150950000000     0.142930000000     0.493060000000     0.402192   
C30      C      0.226760000000     0.168100000000     0.539650000000     0.404495   
C31      C      0.205480000000     0.095470000000     0.490240000000     0.403576   
C32      C      0.217360000000     0.157880000000     0.401040000000     0.402025   
C33      C      0.197850000000     0.917300000000     0.548360000000    -0.0283481  
C34      C      0.212750000000     0.033840000000     0.459050000000    -0.0311347  
C35      C      0.201940000000     0.061690000000     0.539800000000    -0.00422448 
C36      C      0.204050000000     0.058420000000     0.451740000000    -0.0040467  
C37      C      0.183160000000     0.986500000000     0.502300000000    -0.0521701  
C38      C      0.229720000000     0.965950000000     0.511460000000    -0.0522911  
C39      C      0.204390000000     0.000180000000     0.504760000000     0.0626744  
C40      C      0.210620000000     0.036830000000     0.541870000000    -0.0310071  
C41      C      0.208480000000     0.952240000000     0.508790000000     0.062842   
C42      C      0.203580000000     0.917290000000     0.466090000000    -0.0107421  
C43      C      0.185090000000     0.962740000000     0.504220000000    -0.0552869  
C44      C      0.210370000000     0.891730000000     0.465230000000    -0.0530153  
C45      C      0.205300000000     0.892300000000     0.553220000000    -0.0064114  
C46      C      0.227780000000     0.989750000000     0.509410000000    -0.05511    
C47      C      0.197680000000     0.881140000000     0.423900000000     0.320193   
C48      C      0.959820000000     0.811810000000     0.464850000000    -0.0285852  
C49      C      0.089310000000     0.783020000000     0.518800000000    -0.0310404  
C50      C      0.116040000000     0.806530000000     0.445560000000    -0.0053687  
C51      C      0.115940000000     0.776110000000     0.507470000000    -0.00480613 
C52      C      0.033730000000     0.782500000000     0.459280000000    -0.0520365  
C53      C      0.016420000000     0.814450000000     0.522850000000    -0.0516621  
C54      C      0.050740000000     0.795560000000     0.484450000000     0.0629851  
C55      C      0.089400000000     0.812380000000     0.459020000000    -0.0306388  
C56      C      0.999400000000     0.801320000000     0.497830000000     0.063045   
C57      C      0.961760000000     0.783780000000     0.525440000000    -0.0102987  
C58      C      0.008270000000     0.785290000000     0.465800000000    -0.0549606  
C59      C      0.935280000000     0.788940000000     0.542120000000    -0.0525096  
C60      C      0.933930000000     0.819840000000     0.478070000000    -0.00462922 
C61      C      0.041890000000     0.811650000000     0.516330000000    -0.0547066  
C62      C      0.922040000000     0.766450000000     0.549650000000     0.319769   
C63      C      0.840890000000     0.922740000000     0.502270000000    -0.0284411  
C64      C      0.841390000000     0.041020000000     0.586270000000    -0.0308605  
C65      C      0.838990000000     0.065470000000     0.498490000000    -0.00417823 
C66      C      0.849970000000     0.065900000000     0.584410000000    -0.0044689  
C67      C      0.863750000000     0.991900000000     0.533840000000    -0.0520213  
C68      C      0.818520000000     0.971310000000     0.555760000000    -0.0520577  
C69      C      0.843190000000     0.005590000000     0.543610000000     0.0628061  
C70      C      0.830940000000     0.040650000000     0.505250000000    -0.0309315  
C71      C      0.839120000000     0.957600000000     0.546020000000     0.0629921  
C72      C      0.852430000000     0.922510000000     0.582570000000    -0.0105788  
C73      C      0.861830000000     0.968120000000     0.534930000000    -0.0551602  
C74      C      0.846490000000     0.896880000000     0.588090000000    -0.0537259  
C75      C      0.833060000000     0.897730000000     0.503200000000    -0.00609323 
C76      C      0.820450000000     0.995130000000     0.554540000000    -0.0548483  
C77      C      0.866570000000     0.886320000000     0.617870000000     0.319797   
C78      C      0.956420000000     0.143860000000     0.488920000000    -0.0285351  
C79      C      0.088960000000     0.152500000000     0.546130000000    -0.0310697  
C80      C      0.109810000000     0.135670000000     0.460050000000    -0.00448424 
C81      C      0.115570000000     0.143460000000     0.545970000000    -0.00450852 
C82      C      0.032190000000     0.126440000000     0.524000000000    -0.0523266  
C83      C      0.012390000000     0.170290000000     0.513220000000    -0.0522319  
C84      C      0.048040000000     0.144850000000     0.515190000000     0.0627304  
C85      C      0.083600000000     0.145240000000     0.464680000000    -0.0308886  
C86      C      0.996510000000     0.151850000000     0.521970000000     0.0628069  
C87      C      0.960380000000     0.150200000000     0.570680000000    -0.0107737  
C88      C      0.006650000000     0.129820000000     0.527350000000    -0.0552454  
C89      C      0.933160000000     0.157860000000     0.575130000000    -0.0538721  
C90      C      0.929630000000     0.152110000000     0.487920000000    -0.00629594 
C91      C      0.037970000000     0.166880000000     0.509760000000    -0.0550138  
C92      C      0.923100000000     0.147920000000     0.619500000000     0.320816   
C93      C      0.820940000000     0.764810000000     0.715450000000    -0.0278294  
C94      C      0.734220000000     0.692900000000     0.845340000000    -0.0309568  
C95      C      0.765530000000     0.673890000000     0.918030000000    -0.0046069  
C96      C      0.726140000000     0.671270000000     0.870830000000    -0.0042877  
C97      C      0.782700000000     0.706410000000     0.773990000000    -0.051531   
C98      C      0.773720000000     0.752390000000     0.793620000000    -0.0514159  
C99      C      0.770030000000     0.712210000000     0.814240000000     0.0635361  
C100     C      0.772230000000     0.695390000000     0.890620000000    -0.0310472  
C101     C      0.786360000000     0.746590000000     0.753290000000     0.0637006  
C102     C      0.780750000000     0.763440000000     0.678010000000    -0.0108726  
C103     C      0.790790000000     0.723380000000     0.743640000000    -0.0545523  
C104     C      0.786630000000     0.784530000000     0.648050000000    -0.0538233  
C105     C      0.828370000000     0.786220000000     0.688760000000    -0.00795326 
C106     C      0.765540000000     0.735400000000     0.823900000000    -0.0543562  
C107     C      0.774440000000     0.781180000000     0.601480000000     0.320505   
C108     C      0.754260000000     0.684970000000     0.207440000000    -0.0286105  
C109     C      0.782110000000     0.777950000000     0.368770000000    -0.0308227  
C110     C      0.818110000000     0.754830000000     0.427980000000    -0.004734   
C111     C      0.787410000000     0.787470000000     0.416790000000    -0.00463969 
C112     C      0.757410000000     0.726500000000     0.330430000000    -0.0517851  
C113     C      0.777810000000     0.736740000000     0.244430000000    -0.051839   
C114     C      0.776620000000     0.742490000000     0.327320000000     0.0631756  
C115     C      0.811400000000     0.746940000000     0.379390000000    -0.0308174  
C116     C      0.758610000000     0.720710000000     0.247540000000     0.0631268  
C117     C      0.723800000000     0.714550000000     0.196420000000    -0.0105597  
C118     C      0.748450000000     0.715640000000     0.291010000000    -0.054823   
C119     C      0.716390000000     0.705800000000     0.148300000000    -0.0529577  
C120     C      0.750030000000     0.674970000000     0.159690000000    -0.00547797 
C121     C      0.786830000000     0.747560000000     0.283920000000    -0.0548393  
C122     C      0.688390000000     0.706470000000     0.144690000000     0.319167   
C123     C      0.721910000000     0.243970000000     0.886930000000    -0.0287521  
C124     C      0.807320000000     0.209230000000     0.704380000000    -0.0303686  
C125     C      0.786870000000     0.166380000000     0.670050000000    -0.00496624 
C126     C      0.824230000000     0.192690000000     0.678850000000    -0.00558842 
C127     C      0.776470000000     0.206000000000     0.807680000000    -0.0518135  
C128     C      0.748770000000     0.243610000000     0.777640000000    -0.0520868  
C129     C      0.774460000000     0.210590000000     0.760480000000     0.0629504  
C130     C      0.771770000000     0.184220000000     0.696290000000    -0.0308671  
C131     C      0.751160000000     0.239270000000     0.824920000000     0.0629569  
C132     C      0.759110000000     0.266660000000     0.884950000000    -0.010637   
C133     C      0.764940000000     0.220150000000     0.839730000000    -0.0549233  
C134     C      0.747510000000     0.286060000000     0.913340000000    -0.0528363  
C135     C      0.707430000000     0.262090000000     0.913150000000    -0.00514537 
C136     C      0.760270000000     0.229420000000     0.745550000000    -0.0548928  
C137     C      0.766530000000     0.293750000000     0.948480000000     0.31978    
C138     C      0.756570000000     0.272470000000     0.195990000000    -0.0285256  
C139     C      0.774220000000     0.188620000000     0.382160000000    -0.0309138  
C140     C      0.825120000000     0.199400000000     0.408810000000    -0.00470203 
C141     C      0.789440000000     0.170700000000     0.408280000000    -0.00480856 
C142     C      0.780950000000     0.213620000000     0.274470000000    -0.0518114  
C143     C      0.748610000000     0.247880000000     0.303810000000    -0.0522019  
C144     C      0.777350000000     0.217020000000     0.321650000000     0.0626387  
C145     C      0.808030000000     0.215820000000     0.382740000000    -0.0309181  
C146     C      0.752280000000     0.244520000000     0.256590000000     0.0632261  
C147     C      0.722280000000     0.246070000000     0.194650000000    -0.0107399  
C148     C      0.768580000000     0.227190000000     0.242110000000    -0.0552276  
C149     C      0.706030000000     0.262290000000     0.165440000000    -0.0529299  
C150     C      0.742290000000     0.290670000000     0.169230000000    -0.00565198 
C151     C      0.761010000000     0.234280000000     0.336210000000    -0.0547399  
C152     C      0.692590000000     0.248060000000     0.129800000000     0.3198     
C153     C      0.719410000000     0.540770000000     0.070120000000    -0.0287711  
C154     C      0.713120000000     0.421610000000     0.992630000000    -0.0306051  
C155     C      0.718820000000     0.397190000000     0.079750000000    -0.00497673 
C156     C      0.721110000000     0.396540000000     0.992600000000    -0.00512541 
C157     C      0.739340000000     0.471320000000     0.034500000000    -0.0519343  
C158     C      0.692130000000     0.490900000000     0.029620000000    -0.051803   
C159     C      0.718430000000     0.457180000000     0.033550000000     0.0631498  
C160     C      0.710950000000     0.422240000000     0.076260000000    -0.0307022  
C161     C      0.713050000000     0.505050000000     0.030590000000     0.0629678  
C162     C      0.720390000000     0.539750000000     0.987410000000    -0.0101701  
C163     C      0.736770000000     0.495060000000     0.033030000000    -0.0548757  
C164     C      0.712390000000     0.564910000000     0.982520000000    -0.0527863  
C165     C      0.710240000000     0.565380000000     0.071560000000    -0.00456052 
C166     C      0.694700000000     0.467150000000     0.031080000000    -0.0550192  
C167     C      0.728880000000     0.576230000000     0.947110000000     0.318355   
C168     C      0.260700000000     0.769260000000     0.676110000000    -0.0285411  
C169     C      0.270800000000     0.696880000000     0.882220000000    -0.030693   
C170     C      0.316710000000     0.673240000000     0.859460000000    -0.0050276  
C171     C      0.277760000000     0.674870000000     0.907740000000    -0.00546639 
C172     C      0.259480000000     0.710010000000     0.766320000000    -0.0520642  
C173     C      0.267600000000     0.755630000000     0.790190000000    -0.0525291  
C174     C      0.272090000000     0.715110000000     0.807200000000     0.0627624  
C175     C      0.308340000000     0.695380000000     0.836070000000    -0.0307311  
C176     C      0.254980000000     0.750530000000     0.749290000000     0.0631372  
C177     C      0.220020000000     0.769120000000     0.712200000000    -0.0109315  
C178     C      0.251050000000     0.727490000000     0.737430000000    -0.0550959  
C179     C      0.212110000000     0.790620000000     0.685080000000    -0.0540433  
C180     C      0.254420000000     0.790880000000     0.648970000000    -0.00787611 
C181     C      0.276210000000     0.738130000000     0.818940000000    -0.0549263  
C182     C      0.184380000000     0.789920000000     0.677060000000     0.320879   
C183     C      0.325350000000     0.707380000000     0.184840000000    -0.0288249  
C184     C      0.243640000000     0.739650000000     0.375430000000    -0.0310319  
C185     C      0.266160000000     0.781290000000     0.411120000000    -0.00473092 
C186     C      0.237630000000     0.747470000000     0.424270000000    -0.00468163 
C187     C      0.296830000000     0.721460000000     0.321810000000    -0.0520578  
C188     C      0.273000000000     0.730570000000     0.238050000000    -0.0519018  
C189     C      0.276970000000     0.736840000000     0.320510000000     0.0629775  
C190     C      0.271030000000     0.772040000000     0.362800000000    -0.0309019  
C191     C      0.292700000000     0.715000000000     0.239420000000     0.0629725  
C192     C      0.294650000000     0.678670000000     0.200910000000    -0.0100668  
C193     C      0.304680000000     0.710580000000     0.281720000000    -0.0550217  
C194     C      0.297630000000     0.667280000000     0.153580000000    -0.053872   
C195     C      0.329790000000     0.698820000000     0.136020000000    -0.00497175 
C196     C      0.265140000000     0.741440000000     0.278180000000    -0.0548192  
C197     C      0.298370000000     0.641670000000     0.160920000000     0.324659   
C198     C      0.585470000000     0.634270000000     0.043910000000    -0.028555   
C199     C      0.456310000000     0.667010000000     0.997410000000    -0.0308341  
C200     C      0.431870000000     0.624930000000     0.026680000000    -0.00479882 
C201     C      0.429990000000     0.662060000000     0.980420000000    -0.00449119 
C202     C      0.512520000000     0.638710000000     0.981830000000    -0.0518439  
C203     C      0.530570000000     0.663740000000     0.056600000000    -0.0521778  
C204     C      0.495820000000     0.648710000000     0.012490000000     0.0627278  
C205     C      0.458010000000     0.631830000000     0.041510000000    -0.0307494  
C206     C      0.547290000000     0.653710000000     0.025930000000     0.0632025  
C207     C      0.586060000000     0.668090000000     0.996010000000    -0.0109183  
C208     C      0.538030000000     0.641090000000     0.988390000000    -0.0551287  
C209     C      0.613260000000     0.673410000000     0.008510000000    -0.0533403  
C210     C      0.611900000000     0.638210000000     0.060770000000    -0.00632323 
C211     C      0.505020000000     0.661260000000     0.050120000000    -0.0546936  
C212     C      0.625910000000     0.682290000000     0.965580000000     0.321588   
C213     C      0.321420000000     0.252570000000     0.808920000000    -0.0284746  
C214     C      0.239100000000     0.214130000000     0.622860000000    -0.0309098  
C215     C      0.264580000000     0.174330000000     0.585840000000    -0.00503392 
C216     C      0.233040000000     0.206030000000     0.574130000000    -0.00486343 
C217     C      0.291000000000     0.236550000000     0.674150000000    -0.0522072  
C218     C      0.270280000000     0.224910000000     0.759170000000    -0.0522277  
C219     C      0.272980000000     0.219390000000     0.676340000000     0.0625891  
C220     C      0.269390000000     0.183870000000     0.634040000000    -0.0308176  
C221     C      0.288210000000     0.242180000000     0.756950000000     0.0629324  
C222     C      0.287030000000     0.278120000000     0.797050000000    -0.0102928  
C223     C      0.298570000000     0.247930000000     0.713970000000    -0.0552973  
C224     C      0.290140000000     0.289300000000     0.844610000000    -0.0529392  
C225     C      0.326370000000     0.261160000000     0.857610000000    -0.00536627 
C226     C      0.262640000000     0.213590000000     0.719270000000    -0.0548977  
C227     C      0.287300000000     0.314860000000     0.838590000000     0.32077    
C228     C      0.309580000000     0.240470000000     0.127900000000    -0.0286605  
C229     C      0.223680000000     0.197980000000     0.303970000000    -0.0309185  
C230     C      0.249320000000     0.157950000000     0.340590000000    -0.00514593 
C231     C      0.209040000000     0.179710000000     0.329950000000    -0.00507361 
C232     C      0.256770000000     0.198270000000     0.202490000000    -0.0522154  
C233     C      0.279230000000     0.238420000000     0.233630000000    -0.0522569  
C234     C      0.257020000000     0.203120000000     0.249640000000     0.0626858  
C235     C      0.262320000000     0.177130000000     0.314100000000    -0.0309013  
C236     C      0.278750000000     0.233690000000     0.186400000000     0.0629178  
C237     C      0.270310000000     0.259910000000     0.124060000000    -0.0103955  
C238     C      0.267520000000     0.213360000000     0.171020000000    -0.0552472  
C239     C      0.280990000000     0.280110000000     0.096400000000    -0.0532477  
C240     C      0.323220000000     0.259590000000     0.102790000000    -0.00531918 
C241     C      0.268500000000     0.223300000000     0.265130000000    -0.0550048  
C242     C      0.262810000000     0.285890000000     0.058250000000     0.320213   
C243     C      0.579960000000     0.331760000000     0.982040000000    -0.0284526  
C244     C      0.448000000000     0.328980000000     0.043320000000    -0.0310014  
C245     C      0.425600000000     0.334130000000     0.952270000000    -0.00509407 
C246     C      0.421060000000     0.336870000000     0.039120000000    -0.00489892 
C247     C      0.504060000000     0.352120000000     0.007770000000    -0.052153   
C248     C      0.524320000000     0.308450000000     0.018490000000    -0.0521521  
C249     C      0.488370000000     0.333080000000     0.008210000000     0.0625596  
C250     C      0.452320000000     0.326310000000     0.960290000000    -0.0307125  
C251     C      0.540020000000     0.327500000000     0.018020000000     0.0631726  
C252     C      0.576450000000     0.334960000000     0.064300000000    -0.00995517 
C253     C      0.529670000000     0.349440000000     0.012580000000    -0.0553857  
C254     C      0.603530000000     0.327590000000     0.072680000000    -0.0533945  
C255     C      0.606550000000     0.323040000000     0.984360000000    -0.00489241 
C256     C      0.498700000000     0.311130000000     0.013590000000    -0.0547495  
C257     C      0.614780000000     0.343550000000     0.107920000000     0.319483   
C258     C      0.317680000000     0.539330000000     0.959360000000    -0.028883   
C259     C      0.313060000000     0.418610000000     0.028580000000    -0.0304779  
C260     C      0.308790000000     0.396080000000     0.939570000000    -0.00556504 
C261     C      0.303760000000     0.393970000000     0.025880000000    -0.00561487 
C262     C      0.291920000000     0.470560000000     0.987620000000    -0.0519036  
C263     C      0.340300000000     0.486930000000     0.998140000000    -0.0520479  
C264     C      0.311690000000     0.455100000000     0.989490000000     0.0632783  
C265     C      0.317920000000     0.420640000000     0.945190000000    -0.0304064  
C266     C      0.320540000000     0.502400000000     0.996230000000     0.0630841  
C267     C      0.314870000000     0.536400000000     0.041770000000    -0.0100369  
C268     C      0.296210000000     0.494030000000     0.990990000000    -0.0547465  
C269     C      0.324710000000     0.560790000000     0.049440000000    -0.0537468  
C270     C      0.328700000000     0.563290000000     0.960700000000    -0.00423123 
C271     C      0.336010000000     0.463460000000     0.994840000000    -0.0550357  
C272     C      0.308420000000     0.572310000000     0.084740000000     0.324577   
H1       H      0.244460000000     0.999980000000     0.511090000000     0.0431236  
H2       H      0.202560000000     0.926190000000     0.581060000000     0.0378875  
H3       H      0.213170000000     0.925930000000     0.436920000000     0.0392625  
H4       H      0.181800000000     0.062260000000     0.547710000000     0.0395129  
H5       H      0.224620000000     0.891460000000     0.566610000000     0.0412246  
H6       H      0.206950000000     0.023620000000     0.428610000000     0.0379946  
H7       H      0.203140000000     0.028880000000     0.573790000000     0.0374607  
H8       H      0.215040000000     0.066180000000     0.423390000000     0.0454461  
H9       H      0.247830000000     0.958130000000     0.514770000000     0.0480272  
H10      H      0.193170000000     0.884250000000     0.579590000000     0.0499716  
H11      H      0.165070000000     0.994310000000     0.498490000000     0.0474022  
H12      H      0.177410000000     0.918380000000     0.543240000000     0.041933   
H13      H      0.211670000000     0.071500000000     0.567160000000     0.0448913  
H14      H      0.230800000000     0.890450000000     0.460490000000     0.0646323  
H15      H      0.233360000000     0.033430000000     0.461160000000     0.0394843  
H16      H      0.231230000000     0.036340000000     0.543950000000     0.0389319  
H17      H      0.168380000000     0.952600000000     0.501820000000     0.0443531  
H18      H      0.183240000000     0.919490000000     0.460730000000     0.0447412  
H19      H      0.184350000000     0.058170000000     0.440290000000     0.0400667  
H20      H      0.164530000000     0.870200000000     0.398950000000     0.183908   
H21      H      0.054640000000     0.821940000000     0.536260000000     0.0447074  
H22      H      0.969650000000     0.826330000000     0.448050000000     0.0376775  
H23      H      0.972820000000     0.777490000000     0.555380000000     0.0401595  
H24      H      0.115490000000     0.794810000000     0.415540000000     0.0398419  
H25      H      0.935460000000     0.836950000000     0.494390000000     0.0432647  
H26      H      0.079340000000     0.767680000000     0.531910000000     0.0392713  
H27      H      0.079480000000     0.818790000000     0.427870000000     0.038159   
H28      H      0.125470000000     0.770770000000     0.539770000000     0.04924    
H29      H      0.009880000000     0.826800000000     0.547650000000     0.0492991  
H30      H      0.922790000000     0.822140000000     0.446060000000     0.0471408  
H31      H      0.040280000000     0.770050000000     0.434680000000     0.0479139  
H32      H      0.958280000000     0.797750000000     0.439270000000     0.0414952  
H33      H      0.125640000000     0.822440000000     0.434630000000     0.0482011  
H34      H      0.936830000000     0.797790000000     0.575890000000     0.0667483  
H35      H      0.089640000000     0.796070000000     0.546580000000     0.0425657  
H36      H      0.089720000000     0.826290000000     0.485060000000     0.0415784  
H37      H      0.995540000000     0.774890000000     0.446060000000     0.0445506  
H38      H      0.961470000000     0.769900000000     0.499250000000     0.0439921  
H39      H      0.115380000000     0.761120000000     0.484120000000     0.0405752  
H40      H      0.904390000000     0.740410000000     0.517170000000     0.184643   
H41      H      0.804260000000     0.005350000000     0.562050000000     0.0435354  
H42      H      0.829790000000     0.931670000000     0.475280000000     0.0378003  
H43      H      0.849440000000     0.931020000000     0.616340000000     0.0398883  
H44      H      0.857360000000     0.065680000000     0.481230000000     0.0411543  
H45      H      0.812500000000     0.896880000000     0.505090000000     0.043194   
H46      H      0.851930000000     0.032120000000     0.614070000000     0.0386582  
H47      H      0.833570000000     0.031450000000     0.472160000000     0.0377212  
H48      H      0.843570000000     0.074720000000     0.616060000000     0.0461761  
H49      H      0.800930000000     0.963480000000     0.564240000000     0.0488445  
H50      H      0.838600000000     0.889850000000     0.470000000000     0.0492841  
H51      H      0.881330000000     0.999720000000     0.525240000000     0.04786    
H52      H      0.860800000000     0.923900000000     0.492530000000     0.0418462  
H53      H      0.825580000000     0.074040000000     0.474920000000     0.0457498  
H54      H      0.828500000000     0.895480000000     0.606540000000     0.0651205  
H55      H      0.821350000000     0.040420000000     0.595230000000     0.0396574  
H56      H      0.810860000000     0.040090000000     0.513980000000     0.0395437  
H57      H      0.878030000000     0.957990000000     0.527080000000     0.0445016  
H58      H      0.872320000000     0.924780000000     0.573300000000     0.0451061  
H59      H      0.870580000000     0.066270000000     0.584800000000     0.0425165  
H60      H      0.902520000000     0.876030000000     0.618670000000     0.183393   
H61      H      0.049840000000     0.181370000000     0.502720000000     0.0434713  
H62      H      0.964780000000     0.147360000000     0.454610000000     0.0370974  
H63      H      0.971500000000     0.159000000000     0.597720000000     0.0395408  
H64      H      0.108750000000     0.116710000000     0.459100000000     0.0390823  
H65      H      0.929250000000     0.169970000000     0.474800000000     0.0422222  
H66      H      0.081010000000     0.149550000000     0.580950000000     0.0382106  
H67      H      0.071590000000     0.136910000000     0.438400000000     0.0374119  
H68      H      0.127120000000     0.154410000000     0.568740000000     0.0458946  
H69      H      0.004880000000     0.187310000000     0.508930000000     0.0483527  
H70      H      0.919210000000     0.141450000000     0.462820000000     0.0474384  
H71      H      0.039690000000     0.109400000000     0.528070000000     0.0473268  
H72      H      0.956710000000     0.125050000000     0.494810000000     0.0411126  
H73      H      0.117610000000     0.141470000000     0.426580000000     0.0467083  
H74      H      0.933040000000     0.176820000000     0.577750000000     0.0653504  
H75      H      0.089160000000     0.171240000000     0.539480000000     0.0399569  
H76      H      0.083830000000     0.163930000000     0.457460000000     0.0399529  
H77      H      0.994850000000     0.115250000000     0.534000000000     0.0441646  
H78      H      0.961850000000     0.131460000000     0.577020000000     0.0450645  
H79      H      0.115670000000     0.125950000000     0.560930000000     0.0395828  
H80      H      0.911790000000     0.118590000000     0.650530000000     0.184      
H81      H      0.755620000000     0.740330000000     0.854600000000     0.0455356  
H82      H      0.830650000000     0.764990000000     0.749340000000     0.0403533  
H83      H      0.760390000000     0.762910000000     0.684220000000     0.0401115  
H84      H      0.775320000000     0.659080000000     0.902620000000     0.0416057  
H85      H      0.824850000000     0.801370000000     0.710780000000     0.0463603  
H86      H      0.726570000000     0.692280000000     0.809710000000     0.0404255  
H87      H      0.792780000000     0.696570000000     0.888530000000     0.0389799  
H88      H      0.705600000000     0.671340000000     0.873980000000     0.0519754  
H89      H      0.770050000000     0.770140000000     0.801370000000     0.0500956  
H90      H      0.848660000000     0.785480000000     0.682380000000     0.0568542  
H91      H      0.786150000000     0.688650000000     0.766010000000     0.0492912  
H92      H      0.827210000000     0.749490000000     0.696130000000     0.0448928  
H93      H      0.772330000000     0.675840000000     0.953980000000     0.0471341  
H94      H      0.778040000000     0.799590000000     0.665020000000     0.0655866  
H95      H      0.726280000000     0.708100000000     0.862900000000     0.0438858  
H96      H      0.765290000000     0.710650000000     0.909320000000     0.0416531  
H97      H      0.800340000000     0.718370000000     0.712590000000     0.0460113  
H98      H      0.785950000000     0.747570000000     0.659270000000     0.0474479  
H99      H      0.731410000000     0.656190000000     0.849870000000     0.0452214  
H100     H      0.775140000000     0.762200000000     0.543060000000     0.182679   
H101     H      0.801760000000     0.759790000000     0.280630000000     0.0437373  
H102     H      0.773720000000     0.681250000000     0.217960000000     0.0379296  
H103     H      0.720520000000     0.733330000000     0.197460000000     0.0402597  
H104     H      0.807990000000     0.744020000000     0.453250000000     0.0423521  
H105     H      0.765680000000     0.680130000000     0.137120000000     0.0432553  
H106     H      0.762650000000     0.782280000000     0.359270000000     0.0397254  
H107     H      0.813880000000     0.728090000000     0.377740000000     0.0385509  
H108     H      0.787130000000     0.806450000000     0.414930000000     0.0493419  
H109     H      0.785860000000     0.740770000000     0.211280000000     0.0486073  
H110     H      0.750580000000     0.656020000000     0.162590000000     0.0492585  
H111     H      0.749450000000     0.722380000000     0.363610000000     0.048792   
H112     H      0.741710000000     0.676390000000     0.232490000000     0.0420916  
H113     H      0.838280000000     0.752020000000     0.433660000000     0.0483985  
H114     H      0.724180000000     0.717880000000     0.122420000000     0.065334   
H115     H      0.794650000000     0.786330000000     0.343450000000     0.0403798  
H116     H      0.824320000000     0.754960000000     0.354240000000     0.0403642  
H117     H      0.733680000000     0.703260000000     0.294490000000     0.0450294  
H118     H      0.711810000000     0.706550000000     0.223220000000     0.0446644  
H119     H      0.772260000000     0.782080000000     0.440290000000     0.0441003  
H120     H      0.656750000000     0.690330000000     0.164020000000     0.183048   
H121     H      0.758480000000     0.233340000000     0.709250000000     0.0431252  
H122     H      0.708560000000     0.233880000000     0.865910000000     0.0377049  
H123     H      0.773510000000     0.274190000000     0.862060000000     0.0400075  
H124     H      0.791870000000     0.152300000000     0.694140000000     0.0419895  
H125     H      0.694680000000     0.270900000000     0.888710000000     0.0427242  
H126     H      0.818820000000     0.219060000000     0.729300000000     0.0399463  
H127     H      0.756710000000     0.175280000000     0.715230000000     0.0377388  
H128     H      0.837270000000     0.202760000000     0.657240000000     0.0507621  
H129     H      0.738280000000     0.258260000000     0.765710000000     0.0483214  
H130     H      0.695680000000     0.253320000000     0.939200000000     0.0487177  
H131     H      0.787370000000     0.191610000000     0.819640000000     0.0487015  
H132     H      0.730950000000     0.232140000000     0.912000000000     0.0423061  
H133     H      0.775040000000     0.158980000000     0.642430000000     0.044697   
H134     H      0.743650000000     0.300550000000     0.889420000000     0.0656305  
H135     H      0.799060000000     0.221520000000     0.679300000000     0.039759   
H136     H      0.763070000000     0.196280000000     0.671270000000     0.0387964  
H137     H      0.767140000000     0.216370000000     0.876020000000     0.0450246  
H138     H      0.768570000000     0.254190000000     0.908250000000     0.045186   
H139     H      0.835480000000     0.183070000000     0.704550000000     0.0460077  
H140     H      0.782970000000     0.285440000000     0.009330000000     0.184113   
H141     H      0.757930000000     0.237260000000     0.372480000000     0.0431846  
H142     H      0.770410000000     0.281200000000     0.218360000000     0.0380611  
H143     H      0.709900000000     0.235340000000     0.216410000000     0.0401768  
H144     H      0.838280000000     0.191670000000     0.383950000000     0.0413301  
H145     H      0.735740000000     0.303870000000     0.193790000000     0.0439202  
H146     H      0.760530000000     0.179600000000     0.359960000000     0.0383222  
H147     H      0.819670000000     0.227210000000     0.360980000000     0.0378462  
H148     H      0.777140000000     0.161810000000     0.433230000000     0.045596   
H149     H      0.736150000000     0.261130000000     0.315470000000     0.048992   
H150     H      0.755370000000     0.299210000000     0.145170000000     0.0496859  
H151     H      0.793480000000     0.200420000000     0.262810000000     0.0479793  
H152     H      0.766810000000     0.261460000000     0.171330000000     0.0425333  
H153     H      0.836250000000     0.209330000000     0.434080000000     0.0453382  
H154     H      0.692040000000     0.270050000000     0.188750000000     0.0678035  
H155     H      0.763790000000     0.199250000000     0.407240000000     0.0390796  
H156     H      0.797870000000     0.226650000000     0.407860000000     0.0389908  
H157     H      0.771800000000     0.224200000000     0.205890000000     0.0450112  
H158     H      0.732870000000     0.234380000000     0.171760000000     0.0454323  
H159     H      0.796090000000     0.157720000000     0.383360000000     0.0416601  
H160     H      0.696840000000     0.230810000000     0.069800000000     0.184508   
H161     H      0.678240000000     0.456610000000     0.030240000000     0.0439166  
H162     H      0.712850000000     0.531860000000     0.101750000000     0.0379058  
H163     H      0.713920000000     0.530340000000     0.956330000000     0.0398381  
H164     H      0.739010000000     0.396490000000     0.087470000000     0.0424058  
H165     H      0.690390000000     0.565340000000     0.081790000000     0.0440038  
H166     H      0.721270000000     0.430150000000     0.961900000000     0.0394919  
H167     H      0.717470000000     0.431240000000     0.107730000000     0.0384654  
H168     H      0.712780000000     0.388020000000     0.962100000000     0.0496216  
H169     H      0.673770000000     0.498330000000     0.027710000000     0.048454   
H170     H      0.720590000000     0.574560000000     0.099050000000     0.0487519  
H171     H      0.757700000000     0.463890000000     0.036360000000     0.0487591  
H172     H      0.740060000000     0.540630000000     0.070610000000     0.0419494  
H173     H      0.708910000000     0.389100000000     0.109080000000     0.0484609  
H174     H      0.693000000000     0.565090000000     0.969180000000     0.0658154  
H175     H      0.692560000000     0.422570000000     0.989700000000     0.0410105  
H176     H      0.690340000000     0.423210000000     0.075130000000     0.040743   
H177     H      0.753260000000     0.505570000000     0.033790000000     0.0449342  
H178     H      0.741010000000     0.538440000000     0.988520000000     0.0441176  
H179     H      0.741590000000     0.395780000000     0.988930000000     0.0446991  
H180     H      0.762960000000     0.590050000000     0.936820000000     0.182669   
H181     H      0.286170000000     0.742530000000     0.850060000000     0.0431536  
H182     H      0.281010000000     0.769100000000     0.682930000000     0.0371057  
H183     H      0.210350000000     0.769010000000     0.746030000000     0.0392073  
H184     H      0.311390000000     0.658620000000     0.837180000000     0.0407964  
H185     H      0.261210000000     0.805880000000     0.668720000000     0.0405376  
H186     H      0.250230000000     0.698120000000     0.880670000000     0.0388534  
H187     H      0.315660000000     0.695570000000     0.800290000000     0.0375827  
H188     H      0.271440000000     0.676180000000     0.944030000000     0.0476949  
H189     H      0.270960000000     0.773250000000     0.799560000000     0.0477636  
H190     H      0.264700000000     0.790480000000     0.615890000000     0.0479793  
H191     H      0.256390000000     0.692390000000     0.756670000000     0.0479805  
H192     H      0.256010000000     0.754040000000     0.654880000000     0.0416678  
H193     H      0.337260000000     0.673350000000     0.862430000000     0.0472852  
H194     H      0.216340000000     0.805520000000     0.707520000000     0.0628332  
H195     H      0.277950000000     0.711760000000     0.902010000000     0.0397613  
H196     H      0.316370000000     0.710220000000     0.854820000000     0.0400278  
H197     H      0.241640000000     0.723030000000     0.705750000000     0.0449259  
H198     H      0.214240000000     0.753590000000     0.692890000000     0.0484912  
H199     H      0.267650000000     0.660410000000     0.891570000000     0.0413924  
H200     H      0.156220000000     0.770970000000     0.650530000000     0.186449   
H201     H      0.249690000000     0.753200000000     0.276280000000     0.0441293  
H202     H      0.329520000000     0.726000000000     0.185700000000     0.0374071  
H203     H      0.275330000000     0.675670000000     0.212970000000     0.0397998  
H204     H      0.281730000000     0.776070000000     0.434030000000     0.0409763  
H205     H      0.320930000000     0.710910000000     0.111330000000     0.0408705  
H206     H      0.242260000000     0.720690000000     0.374320000000     0.0386147  
H207     H      0.290060000000     0.777170000000     0.352320000000     0.0387579  
H208     H      0.217940000000     0.743290000000     0.431740000000     0.0464882  
H209     H      0.263540000000     0.734050000000     0.205830000000     0.0485728  
H210     H      0.350060000000     0.699270000000     0.129170000000     0.0462655  
H211     H      0.306050000000     0.717720000000     0.354150000000     0.0478442  
H212     H      0.338390000000     0.698600000000     0.208900000000     0.0415178  
H213     H      0.265960000000     0.800270000000     0.409560000000     0.0501328  
H214     H      0.280880000000     0.671510000000     0.132690000000     0.0661879  
H215     H      0.229650000000     0.746870000000     0.351110000000     0.0407901  
H216     H      0.257600000000     0.779890000000     0.338200000000     0.0418752  
H217     H      0.319860000000     0.698540000000     0.283860000000     0.0446974  
H218     H      0.307410000000     0.670600000000     0.226560000000     0.0447024  
H219     H      0.249360000000     0.737660000000     0.448920000000     0.0400244  
H220     H      0.320200000000     0.615310000000     0.181870000000     0.198584   
H221     H      0.492480000000     0.669030000000     0.074480000000     0.0436604  
H222     H      0.575180000000     0.624980000000     0.071370000000     0.0375518  
H223     H      0.576380000000     0.684480000000     0.988380000000     0.0404094  
H224     H      0.433260000000     0.612000000000     0.998860000000     0.0399904  
H225     H      0.611200000000     0.646290000000     0.095330000000     0.0420418  
H226     H      0.465910000000     0.677500000000     0.970880000000     0.0385099  
H227     H      0.468920000000     0.616000000000     0.048120000000     0.0378654  
H228     H      0.419360000000     0.678330000000     0.979680000000     0.0469315  
H229     H      0.537400000000     0.673390000000     0.085720000000     0.0489216  
H230     H      0.620960000000     0.621260000000     0.065070000000     0.0482333  
H231     H      0.505690000000     0.628910000000     0.952890000000     0.0478635  
H232     H      0.585860000000     0.623260000000     0.012720000000     0.0421883  
H233     H      0.422450000000     0.616650000000     0.056380000000     0.0470628  
H234     H      0.613120000000     0.687230000000     0.034740000000     0.0679542  
H235     H      0.455380000000     0.677150000000     0.029730000000     0.0400947  
H236     H      0.457060000000     0.641640000000     0.074230000000     0.0403471  
H237     H      0.550490000000     0.633010000000     0.964320000000     0.0450456  
H238     H      0.585360000000     0.657460000000     0.964260000000     0.04629    
H239     H      0.430970000000     0.655660000000     0.944480000000     0.0406091  
H240     H      0.638910000000     0.673220000000     0.902700000000     0.186989   
H241     H      0.248530000000     0.200520000000     0.721850000000     0.043464   
H242     H      0.327720000000     0.234490000000     0.806880000000     0.0372596  
H243     H      0.267110000000     0.279220000000     0.786940000000     0.0397067  
H244     H      0.279350000000     0.180620000000     0.562410000000     0.0388373  
H245     H      0.319660000000     0.248120000000     0.882570000000     0.0420667  
H246     H      0.236080000000     0.232930000000     0.624290000000     0.0382847  
H247     H      0.288960000000     0.180130000000     0.643730000000     0.0373685  
H248     H      0.212940000000     0.208720000000     0.567520000000     0.0466365  
H249     H      0.262020000000     0.220420000000     0.791890000000     0.0485716  
H250     H      0.346770000000     0.262590000000     0.862600000000     0.0480432  
H251     H      0.298990000000     0.241280000000     0.641320000000     0.0472813  
H252     H      0.332580000000     0.262800000000     0.784110000000     0.0414411  
H253     H      0.265940000000     0.155390000000     0.587290000000     0.046239   
H254     H      0.274830000000     0.283020000000     0.866940000000     0.065699   
H255     H      0.226190000000     0.205840000000     0.647650000000     0.0408413  
H256     H      0.257070000000     0.175020000000     0.659070000000     0.0399661  
H257     H      0.312280000000     0.261340000000     0.711140000000     0.0443277  
H258     H      0.297910000000     0.287670000000     0.770660000000     0.0444509  
H259     H      0.243470000000     0.216760000000     0.549180000000     0.0386023  
H260     H      0.304760000000     0.343650000000     0.816780000000     0.184862   
H261     H      0.268930000000     0.227450000000     0.301390000000     0.0430316  
H262     H      0.323030000000     0.231610000000     0.151020000000     0.0371279  
H263     H      0.254370000000     0.266260000000     0.144670000000     0.0398665  
H264     H      0.245630000000     0.143620000000     0.316530000000     0.0408082  
H265     H      0.334290000000     0.269410000000     0.128330000000     0.0422283  
H266     H      0.211130000000     0.206100000000     0.278170000000     0.0384609  
H267     H      0.278520000000     0.169740000000     0.295800000000     0.0373702  
H268     H      0.194140000000     0.188190000000     0.349960000000     0.0473075  
H269     H      0.287750000000     0.254000000000     0.245960000000     0.0482394  
H270     H      0.336580000000     0.251750000000     0.078420000000     0.0467729  
H271     H      0.248000000000     0.182820000000     0.190110000000     0.0475711  
H272     H      0.302680000000     0.227830000000     0.102300000000     0.0410703  
H273     H      0.262030000000     0.151550000000     0.367960000000     0.0457817  
H274     H      0.282290000000     0.295010000000     0.120020000000     0.0661312  
H275     H      0.229840000000     0.211350000000     0.328650000000     0.0399318  
H276     H      0.269290000000     0.190090000000     0.338940000000     0.0390918  
H277     H      0.266850000000     0.209270000000     0.134740000000     0.0442766  
H278     H      0.263060000000     0.246580000000     0.100200000000     0.0442573  
H279     H      0.200000000000     0.168270000000     0.304440000000     0.0407336  
H280     H      0.250160000000     0.276000000000     0.995450000000     0.18602    
H281     H      0.486990000000     0.296130000000     0.013920000000     0.0435787  
H282     H      0.571170000000     0.324900000000     0.950210000000     0.0374477  
H283     H      0.565300000000     0.329870000000     0.094880000000     0.0401873  
H284     H      0.425710000000     0.352610000000     0.943390000000     0.0390878  
H285     H      0.606540000000     0.304420000000     0.976950000000     0.0441299  
H286     H      0.456080000000     0.336480000000     0.075180000000     0.0382422  
H287     H      0.463640000000     0.331790000000     0.930250000000     0.0376108  
H288     H      0.410270000000     0.329340000000     0.067990000000     0.046378   
H289     H      0.532010000000     0.291480000000     0.022570000000     0.0492836  
H290     H      0.617340000000     0.331460000000     0.956480000000     0.0469705  
H291     H      0.496370000000     0.369090000000     0.003560000000     0.0471356  
H292     H      0.580080000000     0.350750000000     0.979360000000     0.0410392  
H293     H      0.417890000000     0.324760000000     0.922220000000     0.0472931  
H294     H      0.603220000000     0.310030000000     0.087570000000     0.0692079  
H295     H      0.448460000000     0.310040000000     0.046780000000     0.0404406  
H296     H      0.452840000000     0.307320000000     0.962300000000     0.0403141  
H297     H      0.541350000000     0.364460000000     0.011940000000     0.0440987  
H298     H      0.575260000000     0.353910000000     0.061050000000     0.0434319  
H299     H      0.420470000000     0.355750000000     0.042850000000     0.0386643  
H300     H      0.629390000000     0.375190000000     0.117000000000     0.182461   
H301     H      0.351610000000     0.451870000000     0.996500000000     0.0430183  
H302     H      0.324230000000     0.530780000000     0.927460000000     0.0374704  
H303     H      0.319920000000     0.525830000000     0.072390000000     0.0398633  
H304     H      0.288720000000     0.396490000000     0.930810000000     0.0454701  
H305     H      0.348680000000     0.562220000000     0.951680000000     0.0414582  
H306     H      0.304270000000     0.426930000000     0.058810000000     0.0394941  
H307     H      0.312730000000     0.430480000000     0.913730000000     0.0385522  
H308     H      0.310190000000     0.384510000000     0.056970000000     0.0497102  
H309     H      0.359090000000     0.493110000000     0.002290000000     0.0479658  
H310     H      0.319600000000     0.573800000000     0.933470000000     0.0465648  
H311     H      0.273130000000     0.464370000000     0.983600000000     0.0493706  
H312     H      0.297090000000     0.540560000000     0.957470000000     0.0420064  
H313     H      0.318730000000     0.388100000000     0.910280000000     0.049277   
H314     H      0.343780000000     0.559330000000     0.064020000000     0.0666465  
H315     H      0.333500000000     0.418500000000     0.034090000000     0.0400123  
H316     H      0.338500000000     0.420580000000     0.948210000000     0.0395558  
H317     H      0.280580000000     0.505600000000     0.989570000000     0.0453128  
H318     H      0.294240000000     0.536510000000     0.039110000000     0.0445775  
H319     H      0.283150000000     0.394150000000     0.026220000000     0.0454018  
H320     H      0.275360000000     0.588190000000     0.094020000000     0.198131   
In1      In     0.336660000000     0.317620000000     0.981780000000     2.42083    
In2      In     0.342260000000     0.642350000000     0.012390000000     2.41161    
In3      In     0.693400000000     0.318390000000     0.036390000000     2.42498    
In4      In     0.701290000000     0.646320000000     0.028120000000     2.41816    
In5      In     0.842720000000     0.147310000000     0.539810000000     2.41072    
In6      In     0.847690000000     0.815710000000     0.532780000000     2.42213    
In7      In     0.200530000000     0.810330000000     0.515690000000     2.4144     
In8      In     0.200580000000     0.141220000000     0.481830000000     2.41117    
N1       N      0.204160000000     0.879800000000     0.509090000000    -0.154062   
N2       N      0.211280000000     0.927700000000     0.509760000000    -0.114639   
N3       N      0.201530000000     0.024610000000     0.501140000000    -0.112526   
N4       N      0.205890000000     0.072220000000     0.494100000000    -0.168122   
N5       N      0.921160000000     0.804260000000     0.510460000000    -0.153205   
N6       N      0.973240000000     0.804420000000     0.506290000000    -0.113987   
N7       N      0.076900000000     0.791910000000     0.477190000000    -0.112778   
N8       N      0.128900000000     0.794960000000     0.483960000000    -0.167085   
N9       N      0.843540000000     0.885120000000     0.542970000000    -0.154541   
N10      N      0.836390000000     0.933040000000     0.547460000000    -0.114389   
N11      N      0.846020000000     0.030080000000     0.541710000000    -0.112359   
N12      N      0.841170000000     0.077850000000     0.542540000000    -0.167882   
N13      N      0.918040000000     0.151610000000     0.533970000000    -0.154114   
N14      N      0.970160000000     0.156010000000     0.525000000000    -0.114668   
N15      N      0.074250000000     0.140470000000     0.511140000000    -0.112703   
N16      N      0.125860000000     0.142400000000     0.498990000000    -0.167605   
N17      N      0.813850000000     0.788710000000     0.645760000000    -0.153035   
N18      N      0.793970000000     0.764610000000     0.722280000000    -0.114609   
N19      N      0.761450000000     0.694110000000     0.844050000000    -0.112304   
N20      N      0.738620000000     0.669620000000     0.915960000000    -0.166493   
N21      N      0.726600000000     0.682730000000     0.138110000000    -0.153797   
N22      N      0.750010000000     0.709700000000     0.206000000000    -0.114308   
N23      N      0.785550000000     0.753050000000     0.369020000000    -0.112444   
N24      N      0.811150000000     0.778900000000     0.435460000000    -0.167054   
N25      N      0.723560000000     0.279420000000     0.934960000000    -0.1534     
N26      N      0.740200000000     0.255080000000     0.857070000000    -0.114315   
N27      N      0.787970000000     0.196380000000     0.728770000000    -0.112379   
N28      N      0.809900000000     0.176200000000     0.651140000000    -0.166924   
N29      N      0.720540000000     0.281320000000     0.144540000000    -0.153357   
N30      N      0.739320000000     0.259060000000     0.224150000000    -0.114195   
N31      N      0.790750000000     0.202760000000     0.353840000000    -0.112498   
N32      N      0.811170000000     0.180850000000     0.431550000000    -0.167936   
N33      N      0.712510000000     0.577510000000     0.026980000000    -0.153299   
N34      N      0.709580000000     0.529520000000     0.028900000000    -0.11413    
N35      N      0.721910000000     0.432740000000     0.034990000000    -0.112473   
N36      N      0.714160000000     0.385150000000     0.036050000000    -0.166283   
N37      N      0.227330000000     0.792990000000     0.642640000000    -0.1558     
N38      N      0.247020000000     0.769080000000     0.719820000000    -0.115626   
N39      N      0.281110000000     0.696510000000     0.835370000000    -0.112792   
N40      N      0.304600000000     0.670470000000     0.904560000000    -0.167817   
N41      N      0.319620000000     0.675720000000     0.127740000000    -0.153909   
N42      N      0.299450000000     0.703270000000     0.197630000000    -0.114325   
N43      N      0.268830000000     0.747000000000     0.363030000000    -0.112728   
N44      N      0.242890000000     0.772010000000     0.430010000000    -0.167527   
N45      N      0.626040000000     0.653310000000     0.029510000000    -0.154162   
N46      N      0.573570000000     0.656320000000     0.034190000000    -0.114555   
N47      N      0.469630000000     0.645410000000     0.004850000000    -0.112647   
N48      N      0.417570000000     0.644630000000     0.009070000000    -0.167459   
N49      N      0.313940000000     0.283100000000     0.867650000000    -0.15331    
N50      N      0.294830000000     0.254130000000     0.798660000000    -0.114324   
N51      N      0.265040000000     0.208670000000     0.634120000000    -0.112896   
N52      N      0.240360000000     0.181980000000     0.567760000000    -0.168153   
N53      N      0.306370000000     0.275590000000     0.078550000000    -0.154145   
N54      N      0.289210000000     0.250160000000     0.154820000000    -0.114392   
N55      N      0.244980000000     0.187440000000     0.280790000000    -0.112834   
N56      N      0.225520000000     0.165880000000     0.359560000000    -0.167297   
N57      N      0.618470000000     0.326690000000     0.029700000000    -0.153617   
N58      N      0.566420000000     0.324000000000     0.022880000000    -0.113984   
N59      N      0.462050000000     0.336600000000     0.002770000000    -0.112913   
N60      N      0.410430000000     0.330790000000     0.993910000000    -0.168275   
N61      N      0.326490000000     0.574420000000     0.006160000000    -0.15328    
N62      N      0.325770000000     0.526510000000     0.000190000000    -0.114273   
N63      N      0.306460000000     0.431000000000     0.986040000000    -0.112493   
N64      N      0.312120000000     0.383220000000     0.982870000000    -0.165679   
O1       O      0.305280000000     0.306640000000     0.029110000000    -0.489735   
O2       O      0.338430000000     0.287200000000     0.031330000000    -0.502817   
O3       O      0.309630000000     0.311070000000     0.923010000000    -0.48689    
O4       O      0.327040000000     0.351250000000     0.946160000000    -0.494389   
O5       O      0.371550000000     0.324650000000     0.024230000000    -0.505899   
O6       O      0.322330000000     0.349280000000     0.018710000000    -0.495313   
O7       O      0.341310000000     0.289700000000     0.927630000000    -0.497778   
O8       O      0.375320000000     0.322600000000     0.951600000000    -0.502358   
O9       O      0.307390000000     0.657620000000     0.979550000000    -0.504212   
O10      O      0.339750000000     0.655490000000     0.938440000000    -0.496751   
O11      O      0.316780000000     0.646910000000     0.073850000000    -0.482158   
O12      O      0.334760000000     0.607780000000     0.045630000000    -0.478498   
O13      O      0.378860000000     0.659490000000     0.993200000000    -0.493713   
O14      O      0.334450000000     0.609500000000     0.972610000000    -0.504428   
O15      O      0.345230000000     0.671460000000     0.064650000000    -0.505338   
O16      O      0.380520000000     0.628360000000     0.030890000000    -0.504531   
O17      O      0.690370000000     0.290080000000     0.090290000000    -0.486466   
O18      O      0.722860000000     0.310430000000     0.090760000000    -0.497414   
O19      O      0.692540000000     0.288210000000     0.986690000000    -0.496969   
O20      O      0.657010000000     0.322010000000     0.996620000000    -0.502918   
O21      O      0.702510000000     0.351870000000     0.072770000000    -0.497235   
O22      O      0.655460000000     0.322770000000     0.069580000000    -0.489548   
O23      O      0.723670000000     0.310290000000     0.984520000000    -0.489014   
O24      O      0.704300000000     0.351400000000     0.999690000000    -0.496586   
O25      O      0.727100000000     0.651460000000     0.089780000000    -0.493003   
O26      O      0.700820000000     0.677430000000     0.075160000000    -0.49382    
O27      O      0.703390000000     0.656920000000     0.952600000000    -0.488969   
O28      O      0.706230000000     0.612370000000     0.991040000000    -0.494195   
O29      O      0.662440000000     0.634710000000     0.048730000000    -0.50535    
O30      O      0.707580000000     0.612050000000     0.064110000000    -0.490059   
O31      O      0.736380000000     0.659140000000     0.992470000000    -0.505569   
O32      O      0.665600000000     0.665260000000     0.009990000000    -0.477668   
O33      O      0.811770000000     0.152450000000     0.486800000000    -0.500343   
O34      O      0.841310000000     0.176440000000     0.487370000000    -0.504429   
O35      O      0.810790000000     0.150440000000     0.591180000000    -0.502688   
O36      O      0.845020000000     0.112990000000     0.577400000000    -0.502233   
O37      O      0.879450000000     0.145860000000     0.501090000000    -0.499719   
O38      O      0.836430000000     0.112610000000     0.506020000000    -0.499993   
O39      O      0.840900000000     0.173640000000     0.597120000000    -0.494513   
O40      O      0.880530000000     0.153880000000     0.572190000000    -0.480763   
O41      O      0.842800000000     0.784140000000     0.487870000000    -0.503536   
O42      O      0.817430000000     0.811510000000     0.478230000000    -0.490939   
O43      O      0.848340000000     0.801160000000     0.605850000000    -0.481365   
O44      O      0.884530000000     0.798610000000     0.549980000000    -0.480973   
O45      O      0.841340000000     0.851300000000     0.502340000000    -0.496877   
O46      O      0.883730000000     0.821560000000     0.493250000000    -0.504241   
O47      O      0.813440000000     0.805300000000     0.573200000000    -0.493459   
O48      O      0.849310000000     0.848920000000     0.573650000000    -0.498292   
O49      O      0.231900000000     0.801150000000     0.565240000000    -0.508557   
O50      O      0.195630000000     0.803240000000     0.592370000000    -0.478881   
O51      O      0.233440000000     0.805530000000     0.467460000000    -0.491899   
O52      O      0.164990000000     0.815410000000     0.473770000000    -0.502215   
O53      O      0.206890000000     0.843760000000     0.477020000000    -0.482824   
O54      O      0.164810000000     0.790010000000     0.526110000000    -0.49002    
O55      O      0.209230000000     0.777340000000     0.477410000000    -0.507696   
O56      O      0.198250000000     0.845760000000     0.548040000000    -0.503145   
O57      O      0.196530000000     0.163260000000     0.417420000000    -0.497571   
O58      O      0.229820000000     0.144180000000     0.425560000000    -0.500925   
O59      O      0.206960000000     0.174580000000     0.520370000000    -0.506086   
O60      O      0.165960000000     0.145990000000     0.525920000000    -0.499789   
O61      O      0.205330000000     0.105580000000     0.451820000000    -0.503488   
O62      O      0.160980000000     0.139460000000     0.454550000000    -0.49907    
O63      O      0.233290000000     0.147970000000     0.530090000000    -0.503029   
O64      O      0.203860000000     0.108470000000     0.524640000000    -0.501571   
O65      O      0.173080000000     0.876900000000     0.424960000000    -0.335785   
O66      O      0.209590000000     0.876870000000     0.389260000000    -0.243435   
O67      O      0.912820000000     0.754870000000     0.513280000000    -0.336243   
O68      O      0.920210000000     0.758510000000     0.588470000000    -0.240749   
O69      O      0.889370000000     0.882690000000     0.600290000000    -0.339393   
O70      O      0.862290000000     0.881480000000     0.658030000000    -0.242622   
O71      O      0.918180000000     0.125340000000     0.622540000000    -0.338746   
O72      O      0.919830000000     0.160240000000     0.652800000000    -0.242168   
O73      O      0.782520000000     0.764560000000     0.573090000000    -0.337621   
O74      O      0.757160000000     0.793400000000     0.589710000000    -0.24215    
O75      O      0.674670000000     0.690240000000     0.165730000000    -0.338555   
O76      O      0.678200000000     0.721950000000     0.123560000000    -0.239288   
O77      O      0.770850000000     0.280940000000     0.986450000000    -0.336739   
O78      O      0.778350000000     0.311270000000     0.942020000000    -0.242504   
O79      O      0.705000000000     0.239980000000     0.092980000000    -0.336729   
O80      O      0.670650000000     0.243510000000     0.134780000000    -0.240676   
O81      O      0.752030000000     0.582860000000     0.958890000000    -0.338194   
O82      O      0.721480000000     0.578910000000     0.907630000000    -0.243092   
O83      O      0.173880000000     0.771670000000     0.656390000000    -0.334651   
O84      O      0.171490000000     0.806030000000     0.688810000000    -0.241332   
O85      O      0.319310000000     0.631620000000     0.176670000000    -0.337969   
O86      O      0.279890000000     0.630160000000     0.153580000000    -0.242513   
O87      O      0.630850000000     0.667940000000     0.930480000000    -0.335045   
O88      O      0.631320000000     0.702500000000     0.962390000000    -0.23791    
O89      O      0.306150000000     0.327300000000     0.821080000000    -0.335881   
O90      O      0.267790000000     0.324160000000     0.848630000000    -0.241376   
O91      O      0.261670000000     0.272710000000     0.020230000000    -0.339549   
O92      O      0.248800000000     0.302150000000     0.062300000000    -0.240607   
O93      O      0.622240000000     0.364640000000     0.095090000000    -0.33999    
O94      O      0.616580000000     0.337550000000     0.148150000000    -0.241204   
O95      O      0.286160000000     0.580860000000     0.072040000000    -0.337388   
O96      O      0.315130000000     0.573380000000     0.124910000000    -0.243328   


