data_structure

_audit_creation_method RASPA-1.0
_audit_creation_date 2023-5-25
_audit_author_name 'Poobodin Mano'

_cell_length_a    46.0574
_cell_length_b    37.4525
_cell_length_c    46.3417
_cell_angle_alpha 90
_cell_angle_beta  90
_cell_angle_gamma 90
_cell_volume      79937.8

_symmetry_cell_setting          triclinic
_symmetry_space_group_name_Hall 'P 1'
_symmetry_space_group_name_H-M  'P 1'
_symmetry_Int_Tables_number     1

_symmetry_equiv_pos_as_xyz 'x,y,z'

loop_
_atom_site_label
_atom_site_type_symbol
_atom_site_fract_x
_atom_site_fract_y
_atom_site_fract_z
_atom_site_charge
C1       C      0.891880000000     0.505450000000     0.943930000000     0.424868   
C2       C      0.825650000000     0.422670000000     0.929660000000     0.407543   
C3       C      0.836030000000     0.511440000000     0.866910000000     0.408016   
C4       C      0.902500000000     0.427160000000     0.872980000000     0.427909   
C5       C      0.113610000000     0.704680000000     0.051680000000     0.407172   
C6       C      0.172320000000     0.704640000000     0.136520000000     0.406119   
C7       C      0.182720000000     0.776400000000     0.066390000000     0.423684   
C8       C      0.098620000000     0.768100000000     0.126400000000     0.424919   
C9       C      0.335880000000     0.942370000000     0.848010000000     0.408735   
C10      C      0.342360000000     0.016800000000     0.771950000000     0.42678    
C11      C      0.397330000000     0.031170000000     0.849010000000     0.422777   
C12      C      0.409550000000     0.937900000000     0.788950000000     0.404826   
C13      C      0.605530000000     0.266590000000     0.087110000000     0.420498   
C14      C      0.551700000000     0.169290000000     0.077570000000     0.40968    
C15      C      0.613480000000     0.176930000000     0.148020000000     0.422812   
C16      C      0.533020000000     0.245300000000     0.147690000000     0.413409   
C17      C      0.309630000000     0.518750000000     0.355680000000     0.426419   
C18      C      0.390640000000     0.453150000000     0.349570000000     0.423656   
C19      C      0.387050000000     0.525590000000     0.418960000000     0.410339   
C20      C      0.318770000000     0.442300000000     0.418440000000     0.424266   
C21      C      0.675810000000     0.662680000000     0.646040000000     0.425838   
C22      C      0.619950000000     0.759470000000     0.631700000000     0.426394   
C23      C      0.695780000000     0.740320000000     0.578270000000     0.420976   
C24      C      0.617340000000     0.669220000000     0.571360000000     0.430914   
C25      C      0.903360000000     0.930030000000     0.312120000000     0.405474   
C26      C      0.875400000000     0.995280000000     0.380690000000     0.404635   
C27      C      0.832930000000     0.996470000000     0.286580000000     0.405113   
C28      C      0.809280000000     0.926630000000     0.355140000000     0.404686   
C29      C      0.043370000000     0.263890000000     0.645000000000     0.406193   
C30      C      0.106010000000     0.255110000000     0.563150000000     0.406877   
C31      C      0.116540000000     0.198020000000     0.644420000000     0.403628   
C32      C      0.038020000000     0.186610000000     0.578220000000     0.424026   
C33      C      0.004340000000     0.108880000000     0.541180000000    -0.0350638  
C34      C      0.921470000000     0.013340000000     0.444440000000    -0.0305393  
C35      C      0.875720000000     0.048740000000     0.411570000000    -0.00506827 
C36      C      0.899200000000     0.990760000000     0.428110000000    -0.00494471 
C37      C      0.953450000000     0.080500000000     0.465240000000    -0.0536871  
C38      C      0.932900000000     0.091520000000     0.521350000000    -0.0488125  
C39      C      0.926190000000     0.066750000000     0.473410000000     0.0638831  
C40      C      0.899040000000     0.068670000000     0.428660000000    -0.0305837  
C41      C      0.959940000000     0.105400000000     0.513320000000     0.0660902  
C42      C      0.979990000000     0.163080000000     0.525920000000    -0.112503   
C43      C      0.970180000000     0.099750000000     0.485040000000    -0.0543201  
C44      C      0.992020000000     0.184350000000     0.551430000000     0.327084   
C45      C      0.017790000000     0.127360000000     0.567410000000     0.0117624  
C46      C      0.916160000000     0.072370000000     0.501560000000    -0.0507442  
C47      C      0.723280000000     0.813550000000     0.537070000000    -0.0334501  
C48      C      0.782090000000     0.851600000000     0.392910000000    -0.0307093  
C49      C      0.765730000000     0.926330000000     0.386430000000    -0.00545762 
C50      C      0.783090000000     0.869760000000     0.363330000000    -0.00539843 
C51      C      0.778920000000     0.846760000000     0.458460000000    -0.0530893  
C52      C      0.724560000000     0.817190000000     0.470800000000    -0.0535654  
C53      C      0.756150000000     0.850060000000     0.438320000000     0.0641995  
C54      C      0.765230000000     0.907110000000     0.415560000000    -0.0305483  
C55      C      0.747420000000     0.813520000000     0.490780000000     0.0663061  
C56      C      0.735920000000     0.757060000000     0.513600000000    -0.110788   
C57      C      0.774510000000     0.828530000000     0.484400000000    -0.0484235  
C58      C      0.735740000000     0.737480000000     0.542600000000     0.32622    
C59      C      0.722900000000     0.795540000000     0.566720000000     0.01136    
C60      C      0.729010000000     0.835240000000     0.444780000000    -0.0502343  
C61      C      0.276550000000     0.362970000000     0.440000000000    -0.0341921  
C62      C      0.146770000000     0.324460000000     0.526570000000    -0.0308589  
C63      C      0.138440000000     0.247620000000     0.521020000000    -0.00488862 
C64      C      0.117160000000     0.307830000000     0.533080000000    -0.00516404 
C65      C      0.212400000000     0.325290000000     0.513120000000    -0.0529421  
C66      C      0.213430000000     0.352970000000     0.457060000000    -0.0543753  
C67      C      0.188200000000     0.320560000000     0.494930000000     0.0637051  
C68      C      0.167330000000     0.266200000000     0.514620000000    -0.0310767  
C69      C      0.237740000000     0.357370000000     0.475170000000     0.066318   
C70      C      0.256600000000     0.415690000000     0.463330000000    -0.112278   
C71      C      0.236960000000     0.343380000000     0.503180000000    -0.0486179  
C72      C      0.284870000000     0.436480000000     0.459260000000     0.327307   
C73      C      0.305620000000     0.381620000000     0.434540000000     0.0117036  
C74      C      0.188980000000     0.334520000000     0.466900000000    -0.0506956  
C75      C      0.566330000000     0.653630000000     0.512080000000    -0.0342742  
C76      C      0.438940000000     0.544350000000     0.476730000000    -0.0307139  
C77      C      0.416530000000     0.580080000000     0.425440000000    -0.00391303 
C78      C      0.407650000000     0.537820000000     0.467100000000    -0.00492552 
C79      C      0.501490000000     0.571300000000     0.473580000000    -0.0526486  
C80      C      0.503440000000     0.627440000000     0.513350000000    -0.0534274  
C81      C      0.475850000000     0.589900000000     0.480570000000     0.0654131  
C82      C      0.447520000000     0.585150000000     0.436670000000    -0.0312801  
C83      C      0.529040000000     0.608730000000     0.506470000000     0.0667091  
C84      C      0.556440000000     0.611630000000     0.550990000000    -0.111283   
C85      C      0.527820000000     0.580730000000     0.486480000000    -0.046785   
C86      C      0.587210000000     0.615690000000     0.563050000000     0.326899   
C87      C      0.597480000000     0.659330000000     0.522560000000     0.0125543  
C88      C      0.477110000000     0.618000000000     0.500460000000    -0.0503222  
C89      C      0.678680000000     0.157850000000     0.191550000000    -0.0342897  
C90      C      0.776430000000     0.012220000000     0.234800000000    -0.030618   
C91      C      0.823900000000     0.052900000000     0.260260000000    -0.00547891 
C92      C      0.805850000000     0.994540000000     0.240440000000    -0.00571634 
C93      C      0.729060000000     0.068740000000     0.239120000000    -0.053295   
C94      C      0.726580000000     0.101160000000     0.184790000000    -0.0543435  
C95      C      0.753550000000     0.067820000000     0.220930000000     0.06366    
C96      C      0.793990000000     0.069050000000     0.254220000000    -0.0307205  
C97      C      0.702020000000     0.101770000000     0.202900000000     0.0658766  
C98      C      0.662490000000     0.103170000000     0.168330000000    -0.111295   
C99      C      0.703550000000     0.085520000000     0.230070000000    -0.0484475  
C100     C      0.631960000000     0.118200000000     0.163490000000     0.325694   
C101     C      0.648880000000     0.175300000000     0.187860000000     0.0110071  
C102     C      0.752060000000     0.084200000000     0.193790000000    -0.0511378  
C103     C      0.422120000000     0.424760000000     0.280570000000    -0.0342488  
C104     C      0.497240000000     0.272410000000     0.214260000000    -0.0309872  
C105     C      0.495100000000     0.291510000000     0.153300000000    -0.00447895 
C106     C      0.502010000000     0.243790000000     0.191170000000    -0.00476168 
C107     C      0.489640000000     0.347810000000     0.239120000000    -0.0528584  
C108     C      0.431130000000     0.350440000000     0.255180000000    -0.0540437  
C109     C      0.469410000000     0.325360000000     0.225320000000     0.0643469  
C110     C      0.490440000000     0.318480000000     0.177670000000    -0.0311827  
C111     C      0.451330000000     0.373070000000     0.268830000000     0.0659754  
C112     C      0.431950000000     0.379650000000     0.317120000000    -0.111177   
C113     C      0.480570000000     0.371470000000     0.260630000000    -0.0476824  
C114     C      0.427790000000     0.406670000000     0.341580000000     0.325728   
C115     C      0.417550000000     0.453580000000     0.303520000000     0.0116456  
C116     C      0.440180000000     0.326870000000     0.233590000000    -0.050916   
C117     C      0.306240000000     0.092680000000     0.739400000000    -0.0338377  
C118     C      0.162880000000     0.128970000000     0.676140000000    -0.0306146  
C119     C      0.159010000000     0.206670000000     0.676180000000    -0.00512408 
C120     C      0.133210000000     0.147080000000     0.673840000000    -0.00557687 
C121     C      0.215860000000     0.125160000000     0.728170000000    -0.0506642  
C122     C      0.254400000000     0.103780000000     0.684850000000    -0.0486885  
C123     C      0.209680000000     0.133380000000     0.699340000000     0.0637727  
C124     C      0.187730000000     0.186310000000     0.678470000000    -0.030922   
C125     C      0.260440000000     0.095250000000     0.713660000000     0.0659528  
C126     C      0.277960000000     0.038450000000     0.731070000000    -0.111628   
C127     C      0.240960000000     0.106200000000     0.735360000000    -0.0541398  
C128     C      0.305090000000     0.015120000000     0.733620000000     0.326994   
C129     C      0.334290000000     0.071020000000     0.742450000000     0.0116688  
C130     C      0.229240000000     0.122640000000     0.677650000000    -0.0531479  
C131     C      0.587330000000     0.809350000000     0.691120000000    -0.0344355  
C132     C      0.448450000000     0.892830000000     0.729900000000    -0.0304166  
C133     C      0.453560000000     0.900620000000     0.792330000000    -0.00426915 
C134     C      0.421140000000     0.898290000000     0.748110000000    -0.00579165 
C135     C      0.512860000000     0.887840000000     0.715140000000    -0.0534128  
C136     C      0.523310000000     0.814680000000     0.708760000000    -0.0541622  
C137     C      0.494950000000     0.863000000000     0.729430000000     0.0640791  
C138     C      0.479570000000     0.895000000000     0.772270000000    -0.0311585  
C139     C      0.540990000000     0.839490000000     0.694160000000     0.0655451  
C140     C      0.553670000000     0.807560000000     0.650540000000    -0.111563   
C141     C      0.535640000000     0.876060000000     0.697640000000    -0.0482116  
C142     C      0.578410000000     0.801050000000     0.629130000000     0.326145   
C143     C      0.613330000000     0.802980000000     0.671220000000     0.0123559  
C144     C      0.500490000000     0.826460000000     0.726190000000    -0.0512069  
C145     C      0.458230000000     0.069940000000     0.887680000000    -0.033967   
C146     C      0.493260000000     0.131720000000     0.034210000000    -0.0307377  
C147     C      0.556560000000     0.131390000000     0.034150000000    -0.00445652 
C148     C      0.509910000000     0.132170000000     0.062760000000    -0.00495535 
C149     C      0.483510000000     0.136130000000     0.969110000000    -0.0536751  
C150     C      0.471200000000     0.065930000000     0.952510000000    -0.054354   
C151     C      0.493900000000     0.107470000000     0.985870000000     0.0635644  
C152     C      0.538310000000     0.130970000000     0.006540000000    -0.0302727  
C153     C      0.460530000000     0.094600000000     0.935930000000     0.0652346  
C154     C      0.414900000000     0.071520000000     0.918000000000    -0.111317   
C155     C      0.466960000000     0.129620000000     0.944380000000    -0.0487368  
C156     C      0.395000000000     0.070880000000     0.891560000000     0.325651   
C157     C      0.439790000000     0.069190000000     0.860190000000     0.0117222  
C158     C      0.487710000000     0.072440000000     0.977270000000    -0.0514022  
C159     C      0.059580000000     0.835850000000     0.169310000000    -0.0346697  
C160     C      0.944960000000     0.859110000000     0.277640000000    -0.0307913  
C161     C      0.952170000000     0.934850000000     0.290330000000    -0.00517437 
C162     C      0.932000000000     0.874920000000     0.305220000000    -0.00531213 
C163     C      0.014520000000     0.849370000000     0.250610000000    -0.0513576  
C164     C      0.989680000000     0.842910000000     0.195790000000    -0.0486989  
C165     C      0.986420000000     0.862360000000     0.245770000000     0.0636871  
C166     C      0.964510000000     0.916980000000     0.263300000000    -0.0308355  
C167     C      0.017870000000     0.830210000000     0.200550000000     0.0656065  
C168     C      0.040850000000     0.777050000000     0.181290000000    -0.111862   
C169     C      0.030190000000     0.833370000000     0.228250000000    -0.0543745  
C170     C      0.052880000000     0.760870000000     0.153380000000     0.326539   
C171     C      0.072390000000     0.822460000000     0.140890000000     0.0116997  
C172     C      0.973990000000     0.858820000000     0.218150000000    -0.0535661  
C173     C      0.209630000000     0.844700000000     0.017350000000    -0.0340002  
C174     C      0.315580000000     0.874320000000     0.901310000000    -0.0307658  
C175     C      0.288710000000     0.935180000000     0.872510000000    -0.00458932 
C176     C      0.324890000000     0.884310000000     0.870670000000    -0.00509576 
C177     C      0.285920000000     0.880550000000     0.959700000000    -0.0536102  
C178     C      0.237970000000     0.834770000000     0.957770000000    -0.0543183  
C179     C      0.273770000000     0.871050000000     0.932880000000     0.063794   
C180     C      0.280930000000     0.923370000000     0.903140000000    -0.0307068  
C181     C      0.250360000000     0.843870000000     0.984570000000     0.0652419  
C182     C      0.239630000000     0.791260000000     0.013120000000    -0.110829   
C183     C      0.274300000000     0.866890000000     0.985270000000    -0.0491103  
C184     C      0.231110000000     0.778890000000     0.043440000000     0.32559    
C185     C      0.200190000000     0.834380000000     0.047870000000     0.0113496  
C186     C      0.249720000000     0.848220000000     0.932190000000    -0.051496   
C187     C      0.264410000000     0.537900000000     0.293220000000    -0.0342155  
C188     C      0.209350000000     0.687600000000     0.206230000000    -0.0304068  
C189     C      0.194090000000     0.648670000000     0.153830000000    -0.00490331 
C190     C      0.205810000000     0.708060000000     0.177850000000    -0.00523414 
C191     C      0.208140000000     0.624220000000     0.248200000000    -0.0536324  
C192     C      0.266070000000     0.602690000000     0.253370000000    -0.0539344  
C193     C      0.228080000000     0.632430000000     0.226120000000     0.0643677  
C194     C      0.198070000000     0.631010000000     0.183290000000    -0.0304283  
C195     C      0.246090000000     0.594180000000     0.275330000000     0.065522   
C196     C      0.276000000000     0.593430000000     0.318270000000    -0.111253   
C197     C      0.217170000000     0.605220000000     0.272560000000    -0.0485887  
C198     C      0.281110000000     0.573540000000     0.346690000000     0.326284   
C199     C      0.269150000000     0.516100000000     0.320730000000     0.0123874  
C200     C      0.257030000000     0.621620000000     0.229000000000    -0.0510497  
C201     C      0.956880000000     0.411210000000     0.817500000000    -0.034333   
C202     C      0.994090000000     0.279770000000     0.706030000000    -0.0300126  
C203     C      0.030630000000     0.321620000000     0.667290000000    -0.00539282 
C204     C      0.999430000000     0.266740000000     0.675230000000    -0.00587425 
C205     C      0.000400000000     0.324910000000     0.760280000000    -0.0538449  
C206     C      0.950800000000     0.367990000000     0.761500000000    -0.0536924  
C207     C      0.985790000000     0.332950000000     0.734380000000     0.064574   
C208     C      0.024020000000     0.332490000000     0.698460000000    -0.030471   
C209     C      0.965130000000     0.359470000000     0.787460000000     0.0654952  
C210     C      0.925430000000     0.359040000000     0.821750000000    -0.111262   
C211     C      0.990030000000     0.338050000000     0.786560000000    -0.0483041  
C212     C      0.917260000000     0.368840000000     0.852780000000     0.325932   
C213     C      0.949960000000     0.422760000000     0.848410000000     0.0124826  
C214     C      0.961070000000     0.354700000000     0.735250000000    -0.0508919  
C215     C      0.641360000000     0.305550000000     0.024870000000    -0.033823   
C216     C      0.782050000000     0.386600000000     0.989090000000    -0.0304689  
C217     C      0.783870000000     0.381560000000     0.926310000000    -0.00457513 
C218     C      0.811120000000     0.389540000000     0.973330000000    -0.0059929  
C219     C      0.731010000000     0.320010000000     0.996780000000    -0.0517139  
C220     C      0.691790000000     0.373200000000     0.013370000000    -0.0477197  
C221     C      0.736130000000     0.355460000000     0.988650000000     0.0645126  
C222     C      0.755820000000     0.378790000000     0.943900000000    -0.0308962  
C223     C      0.686810000000     0.337780000000     0.021720000000     0.0651771  
C224     C      0.670210000000     0.316570000000     0.068170000000    -0.11101    
C225     C      0.706600000000     0.311110000000     0.013170000000    -0.0534644  
C226     C      0.643390000000     0.313380000000     0.087490000000     0.325168   
C227     C      0.613560000000     0.301950000000     0.042740000000     0.0113565  
C228     C      0.716220000000     0.382090000000     0.996970000000    -0.0539197  
C229     C      0.691640000000     0.626130000000     0.717630000000    -0.0340425  
C230     C      0.814510000000     0.549260000000     0.797290000000    -0.0311666  
C231     C      0.794730000000     0.551690000000     0.857030000000    -0.00446842 
C232     C      0.836540000000     0.546530000000     0.821860000000    -0.00482537 
C233     C      0.755300000000     0.551730000000     0.767710000000    -0.052946   
C234     C      0.749180000000     0.623000000000     0.750700000000    -0.0542816  
C235     C      0.770200000000     0.578740000000     0.782810000000     0.0637428  
C236     C      0.774230000000     0.554320000000     0.831110000000    -0.0311342  
C237     C      0.734530000000     0.595950000000     0.735390000000     0.06638    
C238     C      0.733960000000     0.619010000000     0.686630000000    -0.111151   
C239     C      0.737650000000     0.560390000000     0.744200000000    -0.0484157  
C240     C      0.715360000000     0.621390000000     0.659350000000     0.326166   
C241     C      0.671360000000     0.628830000000     0.691550000000     0.0119685  
C242     C      0.766850000000     0.614340000000     0.774190000000    -0.0507127  
C243     C      0.929420000000     0.584140000000     0.967760000000    -0.0334986  
C244     C      0.073520000000     0.630350000000     0.024420000000    -0.0312179  
C245     C      0.078200000000     0.706290000000     0.011500000000    -0.00330036 
C246     C      0.103060000000     0.648990000000     0.024920000000    -0.00437747 
C247     C      0.007360000000     0.624390000000     0.023100000000    -0.053541   
C248     C      0.995350000000     0.594530000000     0.969080000000    -0.053498   
C249     C      0.027100000000     0.629150000000     0.000200000000     0.065317   
C250     C      0.049230000000     0.686240000000     0.011280000000    -0.0317193  
C251     C      0.975740000000     0.589510000000     0.992060000000     0.0651635  
C252     C      0.956220000000     0.530750000000     0.982520000000    -0.111038   
C253     C      0.981920000000     0.604710000000     0.018960000000    -0.0464657  
C254     C      0.928300000000     0.508600000000     0.983090000000     0.326066   
C255     C      0.900730000000     0.563510000000     0.967880000000     0.0115141  
C256     C      0.020800000000     0.614200000000     0.973220000000    -0.0520023  
F1       F      0.970630000000     0.187630000000     0.572270000000    -0.431487   
F2       F      0.763830000000     0.735870000000     0.553180000000    -0.429474   
F3       F      0.300670000000     0.435420000000     0.484670000000    -0.429112   
F4       F      0.604120000000     0.587550000000     0.553410000000    -0.42505    
F5       F      0.613610000000     0.105100000000     0.184660000000    -0.432132   
F6       F      0.454720000000     0.418720000000     0.350620000000    -0.432064   
F7       F      0.315750000000     0.008150000000     0.706250000000    -0.43233    
F8       F      0.586130000000     0.833190000000     0.616490000000    -0.432479   
F9       F      0.386650000000     0.105460000000     0.885020000000    -0.433335   
F10      F      0.030670000000     0.758130000000     0.133370000000    -0.434271   
F11      F      0.252680000000     0.788730000000     0.062680000000    -0.433661   
F12      F      0.256200000000     0.575430000000     0.363350000000    -0.431864   
F13      F      0.934370000000     0.349370000000     0.871650000000    -0.432462   
F14      F      0.632800000000     0.347230000000     0.093310000000    -0.432538   
F15      F      0.709640000000     0.587230000000     0.649430000000    -0.423618   
F16      F      0.917690000000     0.507630000000     0.011040000000    -0.43049    
H1       H      0.895250000000     0.061930000000     0.508120000000     0.0517917  
H2       H      0.001260000000     0.080120000000     0.546430000000     0.0422676  
H3       H      0.958730000000     0.174840000000     0.519530000000     0.0861995  
H4       H      0.855470000000     0.048000000000     0.424610000000     0.0429156  
H5       H      0.005020000000     0.120070000000     0.586900000000     0.0591993  
H6       H      0.928940000000     0.997920000000     0.463590000000     0.0391889  
H7       H      0.889780000000     0.094560000000     0.436050000000     0.0408995  
H8       H      0.910310000000     0.966810000000     0.419200000000     0.0463118  
H9       H      0.997540000000     0.211630000000     0.543680000000    -0.000115083
H10      H      0.924760000000     0.095730000000     0.543000000000     0.0609525  
H11      H      0.040210000000     0.116980000000     0.570500000000     0.0450632  
H12      H      0.961680000000     0.076470000000     0.443620000000     0.0435759  
H13      H      0.019600000000     0.110790000000     0.522590000000     0.0391432  
H14      H      0.870980000000     0.063950000000     0.391500000000     0.0494534  
H15      H      0.940590000000     0.018280000000     0.430260000000     0.0403373  
H16      H      0.917800000000     0.074470000000     0.414230000000     0.0410253  
H17      H      0.990980000000     0.110290000000     0.478300000000     0.043483   
H18      H      0.995080000000     0.165580000000     0.507240000000     0.0556174  
H19      H      0.882470000000     0.981330000000     0.443640000000     0.0410875  
H20      H      0.711260000000     0.837770000000     0.429590000000     0.0505692  
H21      H      0.730100000000     0.841840000000     0.539930000000     0.0449614  
H22      H      0.751990000000     0.743890000000     0.499140000000     0.0872222  
H23      H      0.743690000000     0.924590000000     0.376710000000     0.0409823  
H24      H      0.744520000000     0.799300000000     0.576960000000     0.066197   
H25      H      0.776790000000     0.822880000000     0.389730000000     0.0417682  
H26      H      0.747650000000     0.918930000000     0.428990000000     0.0404679  
H27      H      0.800760000000     0.857720000000     0.350210000000     0.0506006  
H28      H      0.728070000000     0.709690000000     0.539040000000     0.00969862 
H29      H      0.703340000000     0.806110000000     0.475290000000     0.0468751  
H30      H      0.706440000000     0.808890000000     0.580550000000     0.0514012  
H31      H      0.800030000000     0.858230000000     0.454120000000     0.0461306  
H32      H      0.700910000000     0.813300000000     0.527950000000     0.0446954  
H33      H      0.770860000000     0.955010000000     0.389890000000     0.0478926  
H34      H      0.803980000000     0.853460000000     0.402990000000     0.0433798  
H35      H      0.786330000000     0.911620000000     0.426730000000     0.0420376  
H36      H      0.792240000000     0.826090000000     0.499620000000     0.0592598  
H37      H      0.714060000000     0.754530000000     0.503560000000     0.0595037  
H38      H      0.762150000000     0.864600000000     0.352110000000     0.0414731  
H39      H      0.170390000000     0.331490000000     0.452800000000     0.0492772  
H40      H      0.280630000000     0.333840000000     0.442550000000     0.0430876  
H41      H      0.245570000000     0.425810000000     0.483090000000     0.0872355  
H42      H      0.126570000000     0.243910000000     0.500330000000     0.0397697  
H43      H      0.321240000000     0.373120000000     0.451490000000     0.0631035  
H44      H      0.143220000000     0.352100000000     0.518460000000     0.0413818  
H45      H      0.178900000000     0.250810000000     0.497600000000     0.0394885  
H46      H      0.106570000000     0.323270000000     0.550660000000     0.0509174  
H47      H      0.279280000000     0.464830000000     0.454780000000     0.00669497 
H48      H      0.213240000000     0.364090000000     0.435510000000     0.0453541  
H49      H      0.314320000000     0.372620000000     0.413380000000     0.0466515  
H50      H      0.212190000000     0.315350000000     0.535040000000     0.0464284  
H51      H      0.262310000000     0.366880000000     0.420840000000     0.040262   
H52      H      0.142880000000     0.220720000000     0.530160000000     0.0465984  
H53      H      0.159630000000     0.326060000000     0.546890000000     0.0435794  
H54      H      0.180840000000     0.265890000000     0.534530000000     0.0417009  
H55      H      0.255340000000     0.346990000000     0.517470000000     0.061294   
H56      H      0.242020000000     0.420700000000     0.444570000000     0.0595262  
H57      H      0.103350000000     0.310090000000     0.513490000000     0.0422018  
H58      H      0.457560000000     0.632490000000     0.506070000000     0.0513908  
H59      H      0.565860000000     0.657390000000     0.488260000000     0.0443925  
H60      H      0.548500000000     0.584260000000     0.556060000000     0.0880728  
H61      H      0.402950000000     0.602600000000     0.433330000000     0.0456937  
H62      H      0.612170000000     0.642010000000     0.509650000000     0.064723   
H63      H      0.439980000000     0.541440000000     0.500610000000     0.045146   
H64      H      0.454880000000     0.612540000000     0.430870000000     0.0420323  
H65      H      0.401720000000     0.509710000000     0.472080000000     0.0593527  
H66      H      0.586050000000     0.614120000000     0.586980000000     0.00508685 
H67      H      0.503790000000     0.649180000000     0.528730000000     0.0459451  
H68      H      0.603750000000     0.687550000000     0.518470000000     0.0479753  
H69      H      0.501110000000     0.549430000000     0.458330000000     0.0511266  
H70      H      0.552020000000     0.674180000000     0.522070000000     0.0427029  
H71      H      0.416830000000     0.581230000000     0.401460000000     0.0514579  
H72      H      0.453240000000     0.523680000000     0.466900000000     0.0483955  
H73      H      0.462090000000     0.565600000000     0.425800000000     0.0464309  
H74      H      0.547340000000     0.566110000000     0.480990000000     0.0632067  
H75      H      0.541880000000     0.631140000000     0.561940000000     0.0575088  
H76      H      0.393090000000     0.555490000000     0.479840000000     0.048978   
H77      H      0.770770000000     0.083880000000     0.179630000000     0.0486917  
H78      H      0.689050000000     0.169110000000     0.211250000000     0.043335   
H79      H      0.660910000000     0.073650000000     0.170680000000     0.085296   
H80      H      0.838330000000     0.058830000000     0.241620000000     0.0407004  
H81      H      0.636750000000     0.172870000000     0.208520000000     0.0617923  
H82      H      0.766400000000     0.999350000000     0.215580000000     0.0402002  
H83      H      0.796820000000     0.097930000000     0.249300000000     0.0400162  
H84      H      0.802390000000     0.965920000000     0.245780000000     0.0475502  
H85      H      0.623950000000     0.108430000000     0.142280000000     0.000614741
H86      H      0.726040000000     0.113750000000     0.163780000000     0.0440581  
H87      H      0.652000000000     0.204230000000     0.183440000000     0.0482425  
H88      H      0.729670000000     0.056550000000     0.260280000000     0.0463109  
H89      H      0.692580000000     0.164620000000     0.172650000000     0.0401745  
H90      H      0.833340000000     0.065870000000     0.279690000000     0.0496983  
H91      H      0.762060000000     0.007450000000     0.253730000000     0.0423202  
H92      H      0.780340000000     0.066610000000     0.273960000000     0.0426411  
H93      H      0.684880000000     0.085960000000     0.244280000000     0.0596218  
H94      H      0.676060000000     0.108990000000     0.149000000000     0.0550761  
H95      H      0.818920000000     0.995880000000     0.220290000000     0.0399994  
H96      H      0.424400000000     0.309660000000     0.223260000000     0.0493553  
H97      H      0.430680000000     0.437740000000     0.260710000000     0.0427016  
H98      H      0.447740000000     0.359000000000     0.324330000000     0.0865565  
H99      H      0.473510000000     0.282370000000     0.145500000000     0.0421028  
H100     H      0.437980000000     0.469140000000     0.305770000000     0.0609062  
H101     H      0.487300000000     0.259500000000     0.233510000000     0.0426065  
H102     H      0.475420000000     0.339650000000     0.169840000000     0.0415093  
H103     H      0.517940000000     0.223940000000     0.199390000000     0.0534332  
H104     H      0.417330000000     0.392760000000     0.360050000000     0.00396638 
H105     H      0.408430000000     0.351010000000     0.261200000000     0.0444348  
H106     H      0.400350000000     0.472200000000     0.295970000000     0.0446006  
H107     H      0.512380000000     0.347030000000     0.233280000000     0.0489716  
H108     H      0.400800000000     0.412350000000     0.275290000000     0.0399991  
H109     H      0.506240000000     0.305060000000     0.135050000000     0.0514798  
H110     H      0.518640000000     0.283710000000     0.220730000000     0.0454438  
H111     H      0.511620000000     0.331180000000     0.183070000000     0.0457296  
H112     H      0.496360000000     0.388630000000     0.271000000000     0.0613781  
H113     H      0.410860000000     0.366160000000     0.312690000000     0.0568914  
H114     H      0.481110000000     0.229670000000     0.187440000000     0.0438466  
H115     H      0.224880000000     0.128450000000     0.655190000000     0.0462041  
H116     H      0.311770000000     0.119360000000     0.730370000000     0.0450112  
H117     H      0.262460000000     0.025210000000     0.716050000000     0.084617   
H118     H      0.152000000000     0.214500000000     0.698250000000     0.04049    
H119     H      0.345710000000     0.071020000000     0.721310000000     0.064963   
H120     H      0.159960000000     0.102800000000     0.687170000000     0.0404693  
H121     H      0.203240000000     0.202700000000     0.691260000000     0.040185   
H122     H      0.118980000000     0.130690000000     0.659690000000     0.0502776  
H123     H      0.298760000000     0.989250000000     0.743560000000     0.00292474 
H124     H      0.269060000000     0.095310000000     0.667920000000     0.0600851  
H125     H      0.348640000000     0.084320000000     0.758480000000     0.0497086  
H126     H      0.200940000000     0.133090000000     0.745060000000     0.049603   
H127     H      0.296580000000     0.096610000000     0.761190000000     0.0432467  
H128     H      0.162670000000     0.231560000000     0.663600000000     0.04712    
H129     H      0.171420000000     0.123830000000     0.654040000000     0.0426379  
H130     H      0.196900000000     0.182620000000     0.656440000000     0.0415996  
H131     H      0.244960000000     0.099690000000     0.757770000000     0.0457818  
H132     H      0.267410000000     0.040450000000     0.752640000000     0.0574486  
H133     H      0.123190000000     0.147810000000     0.695660000000     0.0413523  
H134     H      0.486910000000     0.807070000000     0.737060000000     0.0492868  
H135     H      0.594720000000     0.825570000000     0.709860000000     0.0421689  
H136     H      0.536040000000     0.822370000000     0.639280000000     0.085516   
H137     H      0.447590000000     0.874510000000     0.802090000000     0.0419404  
H138     H      0.623450000000     0.829180000000     0.666120000000     0.0630361  
H139     H      0.442510000000     0.876810000000     0.710540000000     0.0430851  
H140     H      0.496770000000     0.880550000000     0.784450000000     0.0391067  
H141     H      0.405490000000     0.914810000000     0.735640000000     0.055869   
H142     H      0.570330000000     0.783050000000     0.611820000000     0.000856365
H143     H      0.527020000000     0.786280000000     0.706500000000     0.044414   
H144     H      0.629700000000     0.786630000000     0.682910000000     0.0458058  
H145     H      0.509060000000     0.916220000000     0.717310000000     0.0472387  
H146     H      0.579370000000     0.783190000000     0.699360000000     0.0402708  
H147     H      0.460120000000     0.918840000000     0.810120000000     0.0476709  
H148     H      0.456550000000     0.919300000000     0.722470000000     0.044891   
H149     H      0.488370000000     0.921470000000     0.765680000000     0.0421741  
H150     H      0.549080000000     0.895440000000     0.686570000000     0.0597804  
H151     H      0.544810000000     0.781320000000     0.657640000000     0.0560227  
H152     H      0.410880000000     0.871840000000     0.751960000000     0.043972   
H153     H      0.495550000000     0.050140000000     0.989940000000     0.0492478  
H154     H      0.479040000000     0.083780000000     0.882780000000     0.042334   
H155     H      0.403760000000     0.086400000000     0.935600000000     0.0843471  
H156     H      0.562920000000     0.103500000000     0.039410000000     0.0434853  
H157     H      0.437920000000     0.096900000000     0.851760000000     0.0639054  
H158     H      0.472230000000     0.117720000000     0.037700000000     0.0410191  
H159     H      0.550620000000     0.116380000000     0.989560000000     0.0389698  
H160     H      0.497460000000     0.148140000000     0.078760000000     0.0500023  
H161     H      0.375140000000     0.055460000000     0.897110000000     0.0012914  
H162     H      0.466560000000     0.038610000000     0.946470000000     0.0439151  
H163     H      0.451130000000     0.052880000000     0.843600000000     0.0461423  
H164     H      0.488000000000     0.163450000000     0.975260000000     0.0461872  
H165     H      0.463270000000     0.042020000000     0.894250000000     0.039775   
H166     H      0.576750000000     0.146880000000     0.030120000000     0.0486022  
H167     H      0.488530000000     0.159720000000     0.027590000000     0.0427623  
H168     H      0.534920000000     0.158920000000     0.999080000000     0.0417681  
H169     H      0.458890000000     0.151920000000     0.931850000000     0.0591723  
H170     H      0.418540000000     0.043620000000     0.925470000000     0.0553071  
H171     H      0.511360000000     0.104350000000     0.071020000000     0.0447953  
H172     H      0.952280000000     0.868530000000     0.213850000000     0.0457933  
H173     H      0.053780000000     0.864520000000     0.166660000000     0.0421505  
H174     H      0.021080000000     0.761890000000     0.187680000000     0.0854911  
H175     H      0.969600000000     0.936300000000     0.306890000000     0.0401576  
H176     H      0.057270000000     0.829540000000     0.123080000000     0.0595016  
H177     H      0.950610000000     0.830680000000     0.281840000000     0.0408693  
H178     H      0.984650000000     0.931380000000     0.256890000000     0.0389047  
H179     H      0.911370000000     0.860800000000     0.310220000000     0.0501358  
H180     H      0.060780000000     0.733440000000     0.158200000000    -0.000770306
H181     H      0.979940000000     0.840640000000     0.174590000000     0.0589999  
H182     H      0.093210000000     0.836660000000     0.136880000000     0.0470446  
H183     H      0.024320000000     0.851850000000     0.271750000000     0.0489164  
H184     H      0.076350000000     0.833790000000     0.186550000000     0.0404042  
H185     H      0.945630000000     0.962630000000     0.284900000000     0.0465234  
H186     H      0.928310000000     0.859910000000     0.260220000000     0.0425486  
H187     H      0.948470000000     0.919520000000     0.245430000000     0.0411104  
H188     H      0.051930000000     0.823750000000     0.232500000000     0.0444023  
H189     H      0.057260000000     0.774010000000     0.198770000000     0.0559071  
H190     H      0.947330000000     0.870000000000     0.323320000000     0.0417624  
H191     H      0.240020000000     0.840930000000     0.911730000000     0.048809   
H192     H      0.209710000000     0.874360000000     0.015740000000     0.0424687  
H193     H      0.261900000000     0.781380000000     0.008300000000     0.0847041  
H194     H      0.272390000000     0.923950000000     0.857330000000     0.042029   
H195     H      0.214250000000     0.848670000000     0.063590000000     0.0629738  
H196     H      0.318190000000     0.844960000000     0.904020000000     0.0400153  
H197     H      0.257820000000     0.930460000000     0.907280000000     0.0398369  
H198     H      0.348490000000     0.878790000000     0.868230000000     0.0473763  
H199     H      0.229720000000     0.749260000000     0.043410000000     0.000741522
H200     H      0.219260000000     0.817360000000     0.956630000000     0.0438136  
H201     H      0.177470000000     0.843470000000     0.051320000000     0.0471346  
H202     H      0.304310000000     0.898470000000     0.960850000000     0.0458699  
H203     H      0.193550000000     0.834110000000     0.001570000000     0.0402814  
H204     H      0.287310000000     0.964780000000     0.871290000000     0.0503448  
H205     H      0.330180000000     0.887930000000     0.916990000000     0.0415581  
H206     H      0.294700000000     0.938170000000     0.918870000000     0.0429117  
H207     H      0.283910000000     0.874320000000     0.005740000000     0.0587887  
H208     H      0.224420000000     0.779100000000     0.997230000000     0.0549182  
H209     H      0.313070000000     0.866900000000     0.855190000000     0.041291   
H210     H      0.272580000000     0.627740000000     0.212190000000     0.0508873  
H211     H      0.247760000000     0.524140000000     0.279830000000     0.0419977  
H212     H      0.267990000000     0.620780000000     0.323290000000     0.0856334  
H213     H      0.214210000000     0.644640000000     0.140970000000     0.0458724  
H214     H      0.247730000000     0.511520000000     0.331160000000     0.0612349  
H215     H      0.225450000000     0.702010000000     0.219840000000     0.0417227  
H216     H      0.205700000000     0.603130000000     0.179820000000     0.0402758  
H217     H      0.195590000000     0.734350000000     0.182500000000     0.0494053  
H218     H      0.298860000000     0.587250000000     0.358600000000     0.00394279 
H219     H      0.288560000000     0.594560000000     0.254990000000     0.0449924  
H220     H      0.278270000000     0.489610000000     0.314800000000     0.0440795  
H221     H      0.185640000000     0.632280000000     0.246480000000     0.0462758  
H222     H      0.285090000000     0.538730000000     0.280780000000     0.0407285  
H223     H      0.176070000000     0.634990000000     0.142290000000     0.0510194  
H224     H      0.188220000000     0.687290000000     0.217910000000     0.0415902  
H225     H      0.176730000000     0.629920000000     0.194560000000     0.0420333  
H226     H      0.201580000000     0.598910000000     0.289290000000     0.0592586  
H227     H      0.297050000000     0.595970000000     0.306620000000     0.0573735  
H228     H      0.227700000000     0.713270000000     0.168660000000     0.0489885  
H229     H      0.949670000000     0.361180000000     0.715490000000     0.0512639  
H230     H      0.979270000000     0.420240000000     0.812150000000     0.0420721  
H231     H      0.924540000000     0.329470000000     0.819460000000     0.0855484  
H232     H      0.015810000000     0.336520000000     0.652670000000     0.0456417  
H233     H      0.967500000000     0.412920000000     0.862850000000     0.0623518  
H234     H      0.972320000000     0.270230000000     0.713050000000     0.0431028  
H235     H      0.024480000000     0.362160000000     0.699840000000     0.0401364  
H236     H      0.000540000000     0.237080000000     0.675360000000     0.0549557  
H237     H      0.894250000000     0.361110000000     0.856460000000     0.00192824 
H238     H      0.931620000000     0.384680000000     0.761560000000     0.0450434  
H239     H      0.949930000000     0.452420000000     0.849450000000     0.0450797  
H240     H      0.019620000000     0.308290000000     0.760190000000     0.0459821  
H241     H      0.941480000000     0.424560000000     0.802430000000     0.0408831  
H242     H      0.053260000000     0.329630000000     0.662000000000     0.0492028  
H243     H      0.010710000000     0.267810000000     0.720570000000     0.0420289  
H244     H      0.041270000000     0.321750000000     0.712900000000     0.0410683  
H245     H      0.001350000000     0.331410000000     0.806330000000     0.0587603  
H246     H      0.909120000000     0.370850000000     0.806810000000     0.0566228  
H247     H      0.980570000000     0.274600000000     0.661650000000     0.0510116  
H248     H      0.719710000000     0.409710000000     0.991040000000     0.0469721  
H249     H      0.635520000000     0.316320000000     0.003250000000     0.0422444  
H250     H      0.685790000000     0.335370000000     0.078490000000     0.0853955  
H251     H      0.791470000000     0.354130000000     0.921090000000     0.0452122  
H252     H      0.602080000000     0.328070000000     0.042620000000     0.0632653  
H253     H      0.786070000000     0.374900000000     0.010810000000     0.0437738  
H254     H      0.740390000000     0.361240000000     0.932070000000     0.0399973  
H255     H      0.825170000000     0.408780000000     0.985110000000     0.0568447  
H256     H      0.650070000000     0.301070000000     0.108290000000     0.00292235 
H257     H      0.676800000000     0.393990000000     0.019830000000     0.0596452  
H258     H      0.599130000000     0.281940000000     0.032330000000     0.0453836  
H259     H      0.746170000000     0.299270000000     0.990590000000     0.049991   
H260     H      0.651110000000     0.278590000000     0.021870000000     0.0395469  
H261     H      0.779070000000     0.395380000000     0.905610000000     0.0488695  
H262     H      0.772800000000     0.413830000000     0.992040000000     0.0445403  
H263     H      0.745890000000     0.405800000000     0.945790000000     0.0419675  
H264     H      0.703310000000     0.283560000000     0.019380000000     0.0438162  
H265     H      0.680870000000     0.289950000000     0.066580000000     0.0554375  
H266     H      0.821990000000     0.363050000000     0.973900000000     0.047707   
H267     H      0.778210000000     0.635370000000     0.785580000000     0.0492773  
H268     H      0.679320000000     0.614140000000     0.735890000000     0.0427779  
H269     H      0.753150000000     0.601860000000     0.681990000000     0.0886673  
H270     H      0.799410000000     0.579120000000     0.864950000000     0.0421221  
H271     H      0.661430000000     0.602200000000     0.687690000000     0.0661204  
H272     H      0.825350000000     0.562050000000     0.778460000000     0.0408555  
H273     H      0.755190000000     0.570900000000     0.837390000000     0.0395889  
H274     H      0.854370000000     0.528330000000     0.815130000000     0.0473594  
H275     H      0.728080000000     0.635560000000     0.642470000000     0.0104703  
H276     H      0.747160000000     0.650690000000     0.744330000000     0.0452605  
H277     H      0.653550000000     0.647830000000     0.696710000000     0.046407   
H278     H      0.757540000000     0.524010000000     0.773910000000     0.0465768  
H279     H      0.698590000000     0.653460000000     0.724090000000     0.0404329  
H280     H      0.783550000000     0.536960000000     0.874660000000     0.048192   
H281     H      0.807630000000     0.521890000000     0.790840000000     0.0423141  
H282     H      0.766280000000     0.527110000000     0.825490000000     0.0417319  
H283     H      0.726540000000     0.539320000000     0.732610000000     0.0612656  
H284     H      0.741960000000     0.646200000000     0.692260000000     0.0588041  
H285     H      0.846120000000     0.573390000000     0.825580000000     0.0410868  
H286     H      0.035790000000     0.617600000000     0.955430000000     0.0489455  
H287     H      0.924850000000     0.612470000000     0.973430000000     0.0430661  
H288     H      0.971450000000     0.519840000000     0.998950000000     0.086143   
H289     H      0.086880000000     0.706870000000     0.989110000000     0.0390044  
H290     H      0.889930000000     0.567760000000     0.989070000000     0.0652704  
H291     H      0.076850000000     0.602070000000     0.017840000000     0.0414875  
H292     H      0.034740000000     0.698940000000     0.995030000000     0.0416913  
H293     H      0.117090000000     0.636070000000     0.041420000000     0.0511957  
H294     H      0.933610000000     0.480800000000     0.976530000000     0.00643248 
H295     H      0.991120000000     0.583020000000     0.948080000000     0.0443382  
H296     H      0.886300000000     0.574490000000     0.950820000000     0.0453145  
H297     H      0.011720000000     0.635610000000     0.044180000000     0.0516838  
H298     H      0.938760000000     0.583420000000     0.945600000000     0.0400196  
H299     H      0.074420000000     0.734310000000     0.018470000000     0.0512398  
H300     H      0.064220000000     0.630620000000     0.046600000000     0.0470623  
H301     H      0.038880000000     0.688840000000     0.032890000000     0.0503055  
H302     H      0.967060000000     0.601020000000     0.036830000000     0.0616687  
H303     H      0.966540000000     0.527960000000     0.960900000000     0.0577729  
H304     H      0.113540000000     0.645320000000     0.003510000000     0.040149   
In1      In     0.863900000000     0.466660000000     0.903320000000     2.41079    
In2      In     0.141790000000     0.738540000000     0.095020000000     2.42044    
In3      In     0.371280000000     0.982500000000     0.814550000000     2.40749    
In4      In     0.575690000000     0.215170000000     0.115570000000     2.40311    
In5      In     0.352060000000     0.485080000000     0.385300000000     2.42345    
In6      In     0.652080000000     0.707570000000     0.606850000000     2.41971    
In7      In     0.855200000000     0.962180000000     0.332960000000     2.41007    
In8      In     0.076750000000     0.226120000000     0.607920000000     2.41744    
N1       N      0.017530000000     0.166600000000     0.564330000000    -0.193508   
N2       N      0.976280000000     0.125530000000     0.534320000000    -0.0872411  
N3       N      0.908050000000     0.047100000000     0.453600000000    -0.112137   
N4       N      0.884710000000     0.011710000000     0.405310000000    -0.167241   
N5       N      0.717370000000     0.757050000000     0.563270000000    -0.191549   
N6       N      0.743750000000     0.794890000000     0.517810000000    -0.0871029  
N7       N      0.759860000000     0.868640000000     0.411270000000    -0.11246    
N8       N      0.786630000000     0.908500000000     0.367230000000    -0.167697   
N9       N      0.302460000000     0.420790000000     0.435860000000    -0.192207   
N10      N      0.262980000000     0.377410000000     0.466280000000    -0.0867556  
N11      N      0.162060000000     0.303030000000     0.504680000000    -0.112381   
N12      N      0.120580000000     0.269780000000     0.540390000000    -0.1679     
N13      N      0.600280000000     0.649540000000     0.553260000000    -0.193479   
N14      N      0.556600000000     0.617360000000     0.519560000000    -0.0863908  
N15      N      0.448130000000     0.580490000000     0.468210000000    -0.111491   
N16      N      0.404140000000     0.546340000000     0.436230000000    -0.165171   
N17      N      0.632020000000     0.157570000000     0.164890000000    -0.193629   
N18      N      0.675280000000     0.118970000000     0.194470000000    -0.0873353  
N19      N      0.780320000000     0.050780000000     0.229540000000    -0.112652   
N20      N      0.821320000000     0.013910000000     0.263420000000    -0.16802    
N21      N      0.410430000000     0.437410000000     0.331670000000    -0.194179   
N22      N      0.442860000000     0.397870000000     0.291150000000    -0.0870423  
N23      N      0.477910000000     0.300490000000     0.203050000000    -0.112124   
N24      N      0.511450000000     0.260310000000     0.163870000000    -0.1675     
N25      N      0.327520000000     0.033880000000     0.750490000000    -0.19357    
N26      N      0.285830000000     0.074050000000     0.720050000000    -0.0868058  
N27      N      0.182910000000     0.151690000000     0.692730000000    -0.112342   
N28      N      0.136310000000     0.183990000000     0.663230000000    -0.167878   
N29      N      0.603900000000     0.786040000000     0.644070000000    -0.193799   
N30      N      0.564290000000     0.828380000000     0.675350000000    -0.0870772  
N31      N      0.470630000000     0.874000000000     0.746950000000    -0.112249   
N32      N      0.428320000000     0.914460000000     0.776250000000    -0.166008   
N33      N      0.410470000000     0.055580000000     0.866600000000    -0.19357    
N34      N      0.442610000000     0.089010000000     0.910750000000    -0.0871888  
N35      N      0.510380000000     0.113060000000     0.011990000000    -0.112142   
N36      N      0.539550000000     0.145980000000     0.058380000000    -0.165872   
N37      N      0.076200000000     0.783340000000     0.141240000000    -0.194214   
N38      N      0.033620000000     0.814870000000     0.176650000000    -0.0875074  
N39      N      0.971110000000     0.879220000000     0.269300000000    -0.112525   
N40      N      0.927860000000     0.913750000000     0.302030000000    -0.167779   
N41      N      0.203530000000     0.795620000000     0.052280000000    -0.194422   
N42      N      0.238860000000     0.830540000000     0.011480000000    -0.0872898  
N43      N      0.285080000000     0.884590000000     0.905980000000    -0.112422   
N44      N      0.317680000000     0.921850000000     0.864310000000    -0.167778   
N45      N      0.287960000000     0.535740000000     0.340970000000    -0.194072   
N46      N      0.254500000000     0.574170000000     0.300620000000    -0.0871326  
N47      N      0.219510000000     0.651120000000     0.200260000000    -0.11168    
N48      N      0.188790000000     0.687380000000     0.156660000000    -0.165498   
N49      N      0.922130000000     0.407240000000     0.857870000000    -0.194445   
N50      N      0.954860000000     0.372080000000     0.815070000000    -0.0872087  
N51      N      0.995240000000     0.319030000000     0.706900000000    -0.111786   
N52      N      0.025890000000     0.283030000000     0.663080000000    -0.165855   
N53      N      0.620670000000     0.292460000000     0.072790000000    -0.193703   
N54      N      0.661830000000     0.329840000000     0.039420000000    -0.0871333  
N55      N      0.762130000000     0.363680000000     0.972550000000    -0.111961   
N56      N      0.806720000000     0.399930000000     0.942950000000    -0.165342   
N57      N      0.687630000000     0.639530000000     0.665540000000    -0.191906   
N58      N      0.716850000000     0.603670000000     0.710430000000    -0.0866297  
N59      N      0.789440000000     0.570800000000     0.806550000000    -0.112271   
N60      N      0.822310000000     0.534600000000     0.848680000000    -0.167786   
N61      N      0.906410000000     0.525090000000     0.964110000000    -0.193481   
N62      N      0.949670000000     0.568460000000     0.988890000000    -0.0868198  
N63      N      0.054010000000     0.648410000000     0.003830000000    -0.112372   
N64      N      0.099000000000     0.687420000000     0.030180000000    -0.167506   
O1       O      0.878700000000     0.414690000000     0.881920000000    -0.498185   
O2       O      0.906790000000     0.459490000000     0.879270000000    -0.501073   
O3       O      0.846300000000     0.437590000000     0.942890000000    -0.492552   
O4       O      0.896880000000     0.472750000000     0.939740000000    -0.489491   
O5       O      0.860140000000     0.497290000000     0.860940000000    -0.506296   
O6       O      0.872530000000     0.518580000000     0.927850000000    -0.505903   
O7       O      0.824200000000     0.429980000000     0.903100000000    -0.493665   
O8       O      0.825850000000     0.502960000000     0.891260000000    -0.496189   
O9       O      0.101050000000     0.734770000000     0.123090000000    -0.499625   
O10      O      0.118120000000     0.786340000000     0.114210000000    -0.495836   
O11      O      0.159130000000     0.688300000000     0.116640000000    -0.490913   
O12      O      0.130750000000     0.688860000000     0.068590000000    -0.491916   
O13      O      0.159810000000     0.790340000000     0.076100000000    -0.494904   
O14      O      0.110810000000     0.737640000000     0.056440000000    -0.504433   
O15      O      0.169830000000     0.738220000000     0.135760000000    -0.501804   
O16      O      0.184990000000     0.743350000000     0.071000000000    -0.504876   
O17      O      0.386920000000     0.949020000000     0.776500000000    -0.494416   
O18      O      0.413050000000     0.949480000000     0.814310000000    -0.491904   
O19      O      0.336680000000     0.985220000000     0.779480000000    -0.494347   
O20      O      0.329320000000     0.973430000000     0.839770000000    -0.494232   
O21      O      0.409190000000     0.019120000000     0.826460000000    -0.495313   
O22      O      0.360390000000     0.931600000000     0.839590000000    -0.50533    
O23      O      0.362830000000     0.031230000000     0.785790000000    -0.499852   
O24      O      0.372320000000     0.018900000000     0.854010000000    -0.500239   
O25      O      0.541020000000     0.257880000000     0.123740000000    -0.501329   
O26      O      0.546390000000     0.217530000000     0.155380000000    -0.497317   
O27      O      0.577670000000     0.179900000000     0.075500000000    -0.491795   
O28      O      0.585010000000     0.249370000000     0.075680000000    -0.497285   
O29      O      0.610620000000     0.210270000000     0.150430000000    -0.489319   
O30      O      0.610910000000     0.258040000000     0.112870000000    -0.491897   
O31      O      0.537900000000     0.181690000000     0.098900000000    -0.500251   
O32      O      0.597400000000     0.162810000000     0.129190000000    -0.492626   
O33      O      0.318800000000     0.475880000000     0.420830000000    -0.488174   
O34      O      0.335460000000     0.430180000000     0.399140000000    -0.494094   
O35      O      0.376250000000     0.480380000000     0.342400000000    -0.507931   
O36      O      0.315510000000     0.486140000000     0.352010000000    -0.509395   
O37      O      0.375140000000     0.497340000000     0.427770000000    -0.490959   
O38      O      0.325200000000     0.534360000000     0.374200000000    -0.493384   
O39      O      0.385570000000     0.441920000000     0.374730000000    -0.48944    
O40      O      0.381500000000     0.533420000000     0.393080000000    -0.494818   
O41      O      0.621740000000     0.660660000000     0.597310000000    -0.494475   
O42      O      0.630270000000     0.697190000000     0.563360000000    -0.499349   
O43      O      0.643090000000     0.747720000000     0.642820000000    -0.496977   
O44      O      0.651100000000     0.676610000000     0.649380000000    -0.495389   
O45      O      0.680050000000     0.756300000000     0.596420000000    -0.499129   
O46      O      0.688570000000     0.671460000000     0.623020000000    -0.485653   
O47      O      0.613030000000     0.745060000000     0.608040000000    -0.501517   
O48      O      0.689740000000     0.707750000000     0.574800000000    -0.481073   
O49      O      0.828400000000     0.911560000000     0.339910000000    -0.490871   
O50      O      0.813080000000     0.959660000000     0.358820000000    -0.508669   
O51      O      0.860910000000     0.011300000000     0.361530000000    -0.490906   
O52      O      0.899550000000     0.963370000000     0.310850000000    -0.509052   
O53      O      0.830700000000     0.963190000000     0.290040000000    -0.50982    
O54      O      0.882870000000     0.912960000000     0.323780000000    -0.493458   
O55      O      0.879910000000     0.962620000000     0.375670000000    -0.507754   
O56      O      0.846580000000     0.012410000000     0.306350000000    -0.494501   
O57      O      0.037110000000     0.220310000000     0.578910000000    -0.495041   
O58      O      0.058720000000     0.172830000000     0.592230000000    -0.492681   
O59      O      0.089160000000     0.272990000000     0.579010000000    -0.495927   
O60      O      0.064270000000     0.277680000000     0.631370000000    -0.491686   
O61      O      0.095810000000     0.180060000000     0.634150000000    -0.493918   
O62      O      0.039500000000     0.231120000000     0.640110000000    -0.498574   
O63      O      0.108190000000     0.222570000000     0.569870000000    -0.510908   
O64      O      0.117300000000     0.230110000000     0.636220000000    -0.509429   


