data_structure

_audit_creation_method RASPA-1.0
_audit_creation_date 2023-6-5
_audit_author_name 'Poobodin Mano'

_cell_length_a    55.2356
_cell_length_b    54.1994
_cell_length_c    29.6585
_cell_angle_alpha 89.7694
_cell_angle_beta  90.2306
_cell_angle_gamma 89.9997
_cell_volume      88788.3

_symmetry_cell_setting          triclinic
_symmetry_space_group_name_Hall 'P 1'
_symmetry_space_group_name_H-M  'P 1'
_symmetry_Int_Tables_number     1

_symmetry_equiv_pos_as_xyz 'x,y,z'

loop_
_atom_site_label
_atom_site_type_symbol
_atom_site_fract_x
_atom_site_fract_y
_atom_site_fract_z
_atom_site_charge
C1       C      0.359520000000     0.402080000000     0.008350000000     0.404291   
C2       C      0.333250000000     0.335270000000     0.945290000000     0.401634   
C3       C      0.404430000000     0.340090000000     0.033050000000     0.403751   
C4       C      0.333010000000     0.330500000000     0.085110000000     0.404427   
C5       C      0.320430000000     0.653910000000     0.969530000000     0.404113   
C6       C      0.298150000000     0.725940000000     0.041020000000     0.403466   
C7       C      0.371030000000     0.708490000000     0.987260000000     0.405946   
C8       C      0.303170000000     0.724450000000     0.899180000000     0.403278   
C9       C      0.650740000000     0.345060000000     0.960620000000     0.4133     
C10      C      0.713110000000     0.317740000000     0.882210000000     0.400297   
C11      C      0.719000000000     0.388660000000     0.955600000000     0.403205   
C12      C      0.719020000000     0.319550000000     0.029190000000     0.408524   
C13      C      0.675320000000     0.632190000000     0.038580000000     0.401755   
C14      C      0.696640000000     0.711680000000     0.017490000000     0.405084   
C15      C      0.619400000000     0.680320000000     0.044170000000     0.404703   
C16      C      0.677600000000     0.692600000000     0.147470000000     0.400488   
C17      C      0.841850000000     0.131400000000     0.480040000000     0.404892   
C18      C      0.835650000000     0.206600000000     0.530550000000     0.405739   
C19      C      0.897450000000     0.188860000000     0.443530000000     0.407996   
C20      C      0.824890000000     0.190490000000     0.383830000000     0.406187   
C21      C      0.861640000000     0.819340000000     0.536730000000     0.402233   
C22      C      0.802650000000     0.819160000000     0.649360000000     0.402216   
C23      C      0.816620000000     0.878980000000     0.555510000000     0.405739   
C24      C      0.785250000000     0.800810000000     0.515080000000     0.405781   
C25      C      0.108160000000     0.840010000000     0.475190000000     0.403841   
C26      C      0.174440000000     0.839240000000     0.392040000000     0.403579   
C27      C      0.150790000000     0.902130000000     0.485410000000     0.405806   
C28      C      0.185690000000     0.830600000000     0.530970000000     0.405808   
C29      C      0.145760000000     0.200890000000     0.491310000000     0.404388   
C30      C      0.212810000000     0.220100000000     0.588260000000     0.403379   
C31      C      0.197930000000     0.148240000000     0.536780000000     0.403088   
C32      C      0.215990000000     0.219370000000     0.449160000000     0.403569   
C33      C      0.166210000000     0.967240000000     0.472330000000    -0.030774   
C34      C      0.177530000000     0.088850000000     0.577530000000    -0.0308501  
C35      C      0.213840000000     0.107420000000     0.514950000000    -0.00532128 
C36      C      0.191460000000     0.112630000000     0.588030000000    -0.00574168 
C37      C      0.158360000000     0.045980000000     0.522340000000    -0.0560109  
C38      C      0.185570000000     0.003950000000     0.543510000000    -0.0560353  
C39      C      0.181380000000     0.048580000000     0.542390000000     0.0615753  
C40      C      0.199040000000     0.084110000000     0.506160000000    -0.0305594  
C41      C      0.162500000000     0.001360000000     0.523650000000     0.0616238  
C42      C      0.151590000000     0.960020000000     0.548670000000    -0.0308243  
C43      C      0.149020000000     0.022540000000     0.513390000000    -0.0538118  
C44      C      0.138070000000     0.936700000000     0.534010000000    -0.0051797  
C45      C      0.153010000000     0.944430000000     0.454710000000    -0.00507657 
C46      C      0.194790000000     0.027380000000     0.553000000000    -0.0537231  
C47      C      0.042680000000     0.837880000000     0.446320000000    -0.0309855  
C48      C      0.918950000000     0.825570000000     0.474350000000    -0.0309316  
C49      C      0.900790000000     0.799570000000     0.553600000000    -0.00544819 
C50      C      0.892240000000     0.818040000000     0.476390000000    -0.00512481 
C51      C      0.971140000000     0.833490000000     0.507320000000    -0.0557995  
C52      C      0.997900000000     0.794910000000     0.469880000000    -0.0539382  
C53      C      0.959340000000     0.811630000000     0.494110000000     0.0616598  
C54      C      0.927020000000     0.808010000000     0.548490000000    -0.0305178  
C55      C      0.009750000000     0.816520000000     0.483250000000     0.061765   
C56      C      0.048620000000     0.820240000000     0.520800000000    -0.0308499  
C57      C      0.996170000000     0.835920000000     0.501950000000    -0.0559802  
C58      C      0.075790000000     0.816860000000     0.513180000000    -0.00478206 
C59      C      0.069520000000     0.835380000000     0.434810000000    -0.0044483  
C60      C      0.972910000000     0.792480000000     0.475290000000    -0.0539495  
C61      C      0.849830000000     0.068480000000     0.529630000000    -0.0309444  
C62      C      0.834590000000     0.944670000000     0.571300000000    -0.0309758  
C63      C      0.799000000000     0.916040000000     0.520600000000    -0.00483158 
C64      C      0.827660000000     0.918960000000     0.588300000000    -0.00432712 
C65      C      0.803010000000     0.998810000000     0.562930000000    -0.053916   
C66      C      0.837610000000     0.015990000000     0.501760000000    -0.0559987  
C67      C      0.817300000000     0.981870000000     0.539520000000     0.0616715  
C68      C      0.807330000000     0.941980000000     0.507370000000    -0.0306653  
C69      C      0.823240000000     0.032950000000     0.525590000000     0.0617604  
C70      C      0.817600000000     0.067270000000     0.474140000000    -0.0309241  
C71      C      0.805960000000     0.024130000000     0.556070000000    -0.0539931  
C72      C      0.815210000000     0.095370000000     0.473210000000    -0.00456542 
C73      C      0.849440000000     0.096670000000     0.531540000000    -0.00443445 
C74      C      0.834800000000     0.990620000000     0.508940000000    -0.0559102  
C75      C      0.080920000000     0.218980000000     0.492930000000    -0.0307815  
C76      C      0.958220000000     0.215180000000     0.461540000000    -0.0309475  
C77      C      0.935430000000     0.177630000000     0.405360000000    -0.00472176 
C78      C      0.931610000000     0.217960000000     0.448050000000    -0.00489076 
C79      C      0.008440000000     0.190540000000     0.469700000000    -0.0558885  
C80      C      0.036430000000     0.217730000000     0.408810000000    -0.0539878  
C81      C      0.997180000000     0.202600000000     0.433040000000     0.0616398  
C82      C      0.961950000000     0.176680000000     0.420390000000    -0.0310567  
C83      C      0.047710000000     0.205750000000     0.445130000000     0.0616398  
C84      C      0.086010000000     0.184100000000     0.442840000000    -0.0309462  
C85      C      0.033540000000     0.191950000000     0.475520000000    -0.0559098  
C86      C      0.113290000000     0.188420000000     0.439220000000    -0.00480376 
C87      C      0.107990000000     0.224940000000     0.492120000000    -0.00528654 
C88      C      0.011390000000     0.216160000000     0.402800000000    -0.053989   
C89      C      0.796660000000     0.784300000000     0.756010000000    -0.0307874  
C90      C      0.744830000000     0.731220000000     0.940800000000    -0.0307891  
C91      C      0.703070000000     0.753190000000     0.985180000000    -0.0052789  
C92      C      0.737010000000     0.721820000000     0.987230000000    -0.00520294 
C93      C      0.765400000000     0.787490000000     0.900200000000    -0.0540459  
C94      C      0.752730000000     0.770920000000     0.814070000000    -0.0557157  
C95      C      0.748640000000     0.768270000000     0.895630000000     0.0617101  
C96      C      0.712120000000     0.761360000000     0.938780000000    -0.0307274  
C97      C      0.769620000000     0.790210000000     0.818870000000     0.0616683  
C98      C      0.763700000000     0.813830000000     0.750060000000    -0.0308382  
C99      C      0.775800000000     0.798360000000     0.862140000000    -0.0539636  
C100     C      0.777290000000     0.829190000000     0.714920000000    -0.00529077 
C101     C      0.811800000000     0.798340000000     0.721330000000    -0.00542541 
C102     C      0.742280000000     0.760070000000     0.852150000000    -0.0558688  
C103     C      0.682960000000     0.731810000000     0.248640000000    -0.0309053  
C104     C      0.736870000000     0.785930000000     0.433890000000    -0.0308108  
C105     C      0.775440000000     0.760240000000     0.482460000000    -0.00521691 
C106     C      0.745040000000     0.795300000000     0.480120000000    -0.00538152 
C107     C      0.710740000000     0.731260000000     0.397090000000    -0.053984   
C108     C      0.726080000000     0.743980000000     0.310270000000    -0.0557658  
C109     C      0.729370000000     0.748530000000     0.391690000000     0.0616621  
C110     C      0.766050000000     0.752340000000     0.436120000000    -0.0307101  
C111     C      0.707430000000     0.726510000000     0.315920000000     0.0616148  
C112     C      0.713150000000     0.699250000000     0.252350000000    -0.0307258  
C113     C      0.699880000000     0.720340000000     0.359530000000    -0.0539303  
C114     C      0.699300000000     0.683480000000     0.218290000000    -0.00543091 
C115     C      0.667750000000     0.717530000000     0.214260000000    -0.00524829 
C116     C      0.736980000000     0.754890000000     0.347880000000    -0.055892   
C117     C      0.809670000000     0.218750000000     0.641860000000    -0.0307662  
C118     C      0.738570000000     0.308810000000     0.769470000000    -0.0305584  
C119     C      0.724650000000     0.278420000000     0.846510000000    -0.00538192 
C120     C      0.717580000000     0.316850000000     0.799490000000    -0.00588753 
C121     C      0.782280000000     0.278950000000     0.738700000000    -0.0560565  
C122     C      0.765180000000     0.249020000000     0.668850000000    -0.0560952  
C123     C      0.757490000000     0.272980000000     0.736340000000     0.0615851  
C124     C      0.745390000000     0.271830000000     0.814690000000    -0.0307722  
C125     C      0.789960000000     0.255030000000     0.671160000000     0.0616465  
C126     C      0.801860000000     0.253900000000     0.592530000000    -0.031113   
C127     C      0.798310000000     0.270020000000     0.706270000000    -0.0538426  
C128     C      0.822710000000     0.246740000000     0.561340000000    -0.00491182 
C129     C      0.830910000000     0.210290000000     0.612870000000    -0.00538952 
C130     C      0.749140000000     0.258000000000     0.701210000000    -0.0537273  
C131     C      0.814290000000     0.218400000000     0.273170000000    -0.0308888  
C132     C      0.723190000000     0.282430000000     0.134550000000    -0.0309701  
C133     C      0.755540000000     0.306910000000     0.070930000000    -0.00398557 
C134     C      0.713780000000     0.304290000000     0.106770000000    -0.00446267 
C135     C      0.757190000000     0.242000000000     0.167900000000    -0.0560996  
C136     C      0.779180000000     0.260000000000     0.246280000000    -0.0560339  
C137     C      0.758530000000     0.267630000000     0.175100000000     0.0616115  
C138     C      0.762890000000     0.284830000000     0.100180000000    -0.0310379  
C139     C      0.777680000000     0.234360000000     0.239270000000     0.0615348  
C140     C      0.776740000000     0.218720000000     0.316030000000    -0.0310209  
C141     C      0.766640000000     0.225560000000     0.199880000000    -0.0537522  
C142     C      0.785490000000     0.197470000000     0.346090000000    -0.00482815 
C143     C      0.824360000000     0.197040000000     0.301410000000    -0.00521164 
C144     C      0.769600000000     0.276420000000     0.214450000000    -0.0536696  
C145     C      0.724200000000     0.447690000000     0.005050000000    -0.0306973  
C146     C      0.690800000000     0.577420000000     0.969470000000    -0.0308967  
C147     C      0.678750000000     0.588930000000     0.062810000000    -0.00492528 
C148     C      0.675720000000     0.600420000000     0.979570000000    -0.00498118 
C149     C      0.680990000000     0.514260000000     0.990310000000    -0.0537281  
C150     C      0.730560000000     0.508120000000     0.975170000000    -0.0537086  
C151     C      0.696380000000     0.534740000000     0.992360000000     0.0617669  
C152     C      0.693890000000     0.566680000000     0.048770000000    -0.0307362  
C153     C      0.715150000000     0.487620000000     0.973100000000     0.0615897  
C154     C      0.714900000000     0.451750000000     0.924350000000    -0.0306168  
C155     C      0.690230000000     0.490850000000     0.981000000000    -0.0560078  
C156     C      0.727980000000     0.427460000000     0.914470000000    -0.00581982 
C157     C      0.737660000000     0.423480000000     0.996750000000    -0.0052243  
C158     C      0.721350000000     0.531510000000     0.984950000000    -0.0561929  
C159     C      0.287770000000     0.770420000000     0.809000000000    -0.0309931  
C160     C      0.230080000000     0.822930000000     0.624330000000    -0.0307835  
C161     C      0.200340000000     0.792070000000     0.565660000000    -0.00494218 
C162     C      0.222480000000     0.832750000000     0.577920000000    -0.00518974 
C163     C      0.233430000000     0.788410000000     0.705870000000    -0.0558343  
C164     C      0.276470000000     0.761860000000     0.695490000000    -0.0539192  
C165     C      0.243630000000     0.785790000000     0.662680000000     0.0615917  
C166     C      0.208890000000     0.784250000000     0.612700000000    -0.0308022  
C167     C      0.266380000000     0.764310000000     0.738460000000     0.0616834  
C168     C      0.263310000000     0.733890000000     0.798340000000    -0.0308291  
C169     C      0.244780000000     0.777830000000     0.743530000000    -0.0558893  
C170     C      0.278870000000     0.718590000000     0.830760000000    -0.00469989 
C171     C      0.304820000000     0.757280000000     0.842080000000    -0.00457152 
C172     C      0.265200000000     0.772520000000     0.657940000000    -0.0539061  
C173     C      0.187910000000     0.798680000000     0.296360000000    -0.0309116  
C174     C      0.281200000000     0.772260000000     0.127810000000    -0.0310066  
C175     C      0.264450000000     0.724500000000     0.094770000000    -0.00490678 
C176     C      0.299070000000     0.755360000000     0.103680000000    -0.00477035 
C177     C      0.233260000000     0.790850000000     0.166200000000    -0.056128   
C178     C      0.236110000000     0.780510000000     0.258580000000    -0.0560068  
C179     C      0.248520000000     0.771810000000     0.181790000000     0.0616504  
C180     C      0.248370000000     0.742970000000     0.119510000000    -0.0309055  
C181     C      0.220830000000     0.799550000000     0.243010000000     0.0615806  
C182     C      0.220820000000     0.828090000000     0.305740000000    -0.030925   
C183     C      0.219550000000     0.804560000000     0.196690000000    -0.0537377  
C184     C      0.204610000000     0.845810000000     0.332030000000    -0.00540669 
C185     C      0.170340000000     0.815210000000     0.322050000000    -0.00516453 
C186     C      0.249810000000     0.766820000000     0.228110000000    -0.053595   
C187     C      0.436000000000     0.710680000000     0.960170000000    -0.0309271  
C188     C      0.553450000000     0.681200000000     0.064870000000    -0.0308602  
C189     C      0.586470000000     0.685360000000     0.988700000000    -0.00492654 
C190     C      0.578210000000     0.668640000000     0.067330000000    -0.00484924 
C191     C      0.512600000000     0.713700000000     0.027360000000    -0.0560985  
C192     C      0.478510000000     0.679900000000     0.994900000000    -0.0561275  
C193     C      0.520110000000     0.689960000000     0.014290000000     0.0616911  
C194     C      0.561320000000     0.697150000000     0.989690000000    -0.0308677  
C195     C      0.470990000000     0.703640000000     0.007990000000     0.0616809  
C196     C      0.430850000000     0.696610000000     0.037550000000    -0.030848   
C197     C      0.488220000000     0.720410000000     0.024120000000    -0.0536545  
C198     C      0.405540000000     0.707910000000     0.040150000000    -0.00492792 
C199     C      0.410800000000     0.722450000000     0.959440000000    -0.00521754 
C200     C      0.502900000000     0.673210000000     0.998020000000    -0.0538829  
C201     C      0.260190000000     0.244650000000     0.665520000000    -0.031037   
C202     C      0.281850000000     0.317200000000     0.869620000000    -0.0309826  
C203     C      0.334260000000     0.310610000000     0.876310000000    -0.00435943 
C204     C      0.294250000000     0.321520000000     0.915060000000    -0.00426696 
C205     C      0.275720000000     0.305380000000     0.769560000000    -0.0561253  
C206     C      0.262690000000     0.255510000000     0.766450000000    -0.0561424  
C207     C      0.281830000000     0.289620000000     0.805700000000     0.0617153  
C208     C      0.319540000000     0.306880000000     0.833110000000    -0.0309845  
C209     C      0.256720000000     0.271220000000     0.730160000000     0.061691   
C210     C      0.220860000000     0.251640000000     0.698980000000    -0.0310264  
C211     C      0.263260000000     0.296170000000     0.732150000000    -0.0536697  
C212     C      0.207690000000     0.246780000000     0.654370000000    -0.00475303 
C213     C      0.249210000000     0.239680000000     0.619140000000    -0.00431777 
C214     C      0.275120000000     0.264730000000     0.803880000000    -0.053646   
C215     C      0.291970000000     0.322100000000     0.182860000000    -0.0309833  
C216     C      0.256130000000     0.228990000000     0.350390000000    -0.030958   
C217     C      0.224140000000     0.257830000000     0.407900000000    -0.00452403 
C218     C      0.250900000000     0.219890000000     0.398200000000    -0.00461255 
C219     C      0.284980000000     0.280670000000     0.308060000000    -0.0536726  
C220     C      0.262230000000     0.270810000000     0.225690000000    -0.0536969  
C221     C      0.264160000000     0.265940000000     0.307160000000     0.0618181  
C222     C      0.230690000000     0.265070000000     0.359610000000    -0.0310204  
C223     C      0.283080000000     0.285490000000     0.226580000000     0.0618114  
C224     C      0.316630000000     0.285390000000     0.174410000000    -0.0309169  
C225     C      0.294440000000     0.290410000000     0.268170000000    -0.0561326  
C226     C      0.323490000000     0.292290000000     0.126130000000    -0.00473703 
C227     C      0.297620000000     0.330890000000     0.135010000000    -0.0045602  
C228     C      0.252780000000     0.261060000000     0.265580000000    -0.0561326  
C229     C      0.590260000000     0.360620000000     0.004240000000    -0.0309913  
C230     C      0.463610000000     0.319230000000     0.998970000000    -0.030765   
C231     C      0.443190000000     0.347900000000     0.072550000000    -0.00559795 
C232     C      0.439050000000     0.312240000000     0.018970000000    -0.00546126 
C233     C      0.522460000000     0.324200000000     0.040720000000    -0.0538239  
C234     C      0.531880000000     0.354040000000     0.965650000000    -0.0537796  
C235     C      0.503180000000     0.335460000000     0.017750000000     0.061628   
C236     C      0.467600000000     0.353940000000     0.050900000000    -0.0307696  
C237     C      0.551140000000     0.342600000000     0.988350000000     0.0616309  
C238     C      0.587430000000     0.323440000000     0.958950000000    -0.0308048  
C239     C      0.546290000000     0.327760000000     0.026360000000    -0.0560728  
C240     C      0.611230000000     0.329220000000     0.934930000000    -0.00482734 
C241     C      0.614130000000     0.368110000000     0.982060000000    -0.00441421 
C242     C      0.508080000000     0.350620000000     0.980190000000    -0.0560715  
C243     C      0.345310000000     0.467030000000     0.031900000000    -0.0308305  
C244     C      0.337220000000     0.591370000000     0.934350000000    -0.0308893  
C245     C      0.307910000000     0.614460000000     0.004060000000    -0.00520201 
C246     C      0.324470000000     0.615900000000     0.924620000000    -0.00519318 
C247     C      0.356250000000     0.547580000000     0.988290000000    -0.0560893  
C248     C      0.325050000000     0.508100000000     0.970510000000    -0.0561015  
C249     C      0.332480000000     0.552260000000     0.973170000000     0.0615833  
C250     C      0.321400000000     0.590070000000     0.010840000000    -0.0308004  
C251     C      0.348880000000     0.503420000000     0.985350000000     0.0616389  
C252     C      0.356560000000     0.463060000000     0.953060000000    -0.0309409  
C253     C      0.364330000000     0.523330000000     0.994120000000    -0.0539014  
C254     C      0.369610000000     0.438590000000     0.962110000000    -0.00533075 
C255     C      0.358070000000     0.442910000000     0.044370000000    -0.00504987 
C256     C      0.317030000000     0.532340000000     0.964360000000    -0.0536512  
H1       H      0.212680000000     0.029090000000     0.567710000000     0.0451148  
H2       H      0.167260000000     0.981020000000     0.444460000000     0.0357777  
H3       H      0.141680000000     0.968460000000     0.577340000000     0.0355585  
H4       H      0.231320000000     0.101970000000     0.530860000000     0.0373496  
H5       H      0.135410000000     0.950330000000     0.439840000000     0.0372785  
H6       H      0.173060000000     0.079490000000     0.609900000000     0.0355732  
H7       H      0.210230000000     0.071250000000     0.485800000000     0.0359738  
H8       H      0.179450000000     0.125400000000     0.606810000000     0.043607   
H9       H      0.138790000000     0.922950000000     0.561910000000     0.0443168  
H10      H      0.196610000000     0.987940000000     0.550900000000     0.0416906  
H11      H      0.163970000000     0.936050000000     0.427390000000     0.0458839  
H12      H      0.147830000000     0.062020000000     0.512800000000     0.0413907  
H13      H      0.185010000000     0.962080000000     0.482320000000     0.0397646  
H14      H      0.217950000000     0.116490000000     0.482190000000     0.0473401  
H15      H      0.118750000000     0.941520000000     0.528090000000     0.0365741  
H16      H      0.160290000000     0.093830000000     0.560200000000     0.0383586  
H17      H      0.182590000000     0.089020000000     0.486200000000     0.0402188  
H18      H      0.131420000000     0.020860000000     0.497460000000     0.0448693  
H19      H      0.170000000000     0.954710000000     0.560660000000     0.038835   
H20      H      0.207070000000     0.107920000000     0.610220000000     0.0367691  
H21      H      0.964080000000     0.775540000000     0.465110000000     0.0457231  
H22      H      0.032010000000     0.836560000000     0.414490000000     0.0356666  
H23      H      0.042390000000     0.805690000000     0.544700000000     0.0358016  
H24      H      0.899640000000     0.779710000000     0.544610000000     0.0389968  
H25      H      0.071950000000     0.818830000000     0.413230000000     0.0399644  
H26      H      0.924710000000     0.825610000000     0.438420000000     0.0354563  
H27      H      0.938830000000     0.795060000000     0.567790000000     0.0359307  
H28      H      0.881150000000     0.832590000000     0.459690000000     0.0432093  
H29      H      0.085530000000     0.820970000000     0.545180000000     0.0443219  
H30      H      0.008130000000     0.779850000000     0.455460000000     0.0458676  
H31      H      0.075090000000     0.851760000000     0.414670000000     0.0441518  
H32      H      0.961050000000     0.848540000000     0.522080000000     0.0408046  
H33      H      0.039370000000     0.856390000000     0.461270000000     0.0375706  
H34      H      0.895520000000     0.801350000000     0.589590000000     0.0470727  
H35      H      0.079310000000     0.797210000000     0.504820000000     0.0395591  
H36      H      0.920970000000     0.844650000000     0.487650000000     0.0377716  
H37      H      0.929070000000     0.826760000000     0.563280000000     0.0384949  
H38      H      0.004920000000     0.852800000000     0.512560000000     0.0408209  
H39      H      0.045330000000     0.838550000000     0.536570000000     0.0377905  
H40      H      0.889820000000     0.800690000000     0.457020000000     0.0383887  
H41      H      0.846190000000     0.977890000000     0.490680000000     0.0407173  
H42      H      0.856010000000     0.061340000000     0.562990000000     0.0355489  
H43      H      0.799620000000     0.059140000000     0.465780000000     0.0356354  
H44      H      0.780900000000     0.917380000000     0.536670000000     0.0396053  
H45      H      0.839900000000     0.102410000000     0.562730000000     0.0395944  
H46      H      0.840020000000     0.956040000000     0.600860000000     0.0354617  
H47      H      0.792250000000     0.951320000000     0.489040000000     0.0357871  
H48      H      0.844200000000     0.909670000000     0.601520000000     0.0424753  
H49      H      0.811820000000     0.101410000000     0.437850000000     0.0429273  
H50      H      0.850960000000     0.022350000000     0.477770000000     0.0407881  
H51      H      0.868400000000     0.103480000000     0.534110000000     0.0441698  
H52      H      0.789550000000     0.992330000000     0.586650000000     0.0458548  
H53      H      0.863130000000     0.062500000000     0.503740000000     0.0372999  
H54      H      0.796830000000     0.904890000000     0.489440000000     0.0449219  
H55      H      0.799140000000     0.100730000000     0.493400000000     0.03895    
H56      H      0.850450000000     0.943260000000     0.548360000000     0.037488   
H57      H      0.823010000000     0.940550000000     0.484030000000     0.0374013  
H58      H      0.794730000000     0.036960000000     0.574480000000     0.0457812  
H59      H      0.830720000000     0.061300000000     0.447930000000     0.0376686  
H60      H      0.814860000000     0.920950000000     0.616900000000     0.0394465  
H61      H      0.002960000000     0.225610000000     0.374580000000     0.0455833  
H62      H      0.070770000000     0.236450000000     0.498400000000     0.0358695  
H63      H      0.079610000000     0.175450000000     0.410970000000     0.0353699  
H64      H      0.934610000000     0.184910000000     0.370280000000     0.0386798  
H65      H      0.111020000000     0.240600000000     0.468480000000     0.0390532  
H66      H      0.966020000000     0.233950000000     0.466100000000     0.0356675  
H67      H      0.972530000000     0.166810000000     0.394180000000     0.0356154  
H68      H      0.921610000000     0.226370000000     0.476610000000     0.0437656  
H69      H      0.122550000000     0.170220000000     0.437960000000     0.0426694  
H70      H      0.047110000000     0.228340000000     0.385110000000     0.0456371  
H71      H      0.113650000000     0.231110000000     0.526300000000     0.0454945  
H72      H      0.997850000000     0.180110000000     0.493760000000     0.0409266  
H73      H      0.077140000000     0.206360000000     0.521780000000     0.0377673  
H74      H      0.928080000000     0.158530000000     0.404940000000     0.0444152  
H75      H      0.117060000000     0.198180000000     0.406950000000     0.0382702  
H76      H      0.959480000000     0.205190000000     0.494360000000     0.0382341  
H77      H      0.963300000000     0.166000000000     0.452440000000     0.0379901  
H78      H      0.041850000000     0.182390000000     0.503690000000     0.0408243  
H79      H      0.082310000000     0.171040000000     0.471090000000     0.0375288  
H80      H      0.930380000000     0.230880000000     0.418920000000     0.0382968  
H81      H      0.729350000000     0.745270000000     0.847710000000     0.0413215  
H82      H      0.809210000000     0.774780000000     0.779840000000     0.0358686  
H83      H      0.751700000000     0.826360000000     0.769500000000     0.0357231  
H84      H      0.710480000000     0.766000000000     0.010970000000     0.0369329  
H85      H      0.825290000000     0.809870000000     0.739520000000     0.0392182  
H86      H      0.764770000000     0.728770000000     0.937790000000     0.0356387  
H87      H      0.707800000000     0.781280000000     0.934220000000     0.0357713  
H88      H      0.740460000000     0.701640000000     0.989230000000     0.044541   
H89      H      0.764020000000     0.836490000000     0.689900000000     0.0437469  
H90      H      0.747710000000     0.764230000000     0.780990000000     0.0409251  
H91      H      0.821960000000     0.784760000000     0.700700000000     0.0457963  
H92      H      0.770450000000     0.793990000000     0.933410000000     0.0454276  
H93      H      0.785650000000     0.770010000000     0.738480000000     0.0379441  
H94      H      0.683010000000     0.754740000000     0.985790000000     0.0454285  
H95      H      0.785760000000     0.845250000000     0.732060000000     0.0385771  
H96      H      0.735890000000     0.719880000000     0.914300000000     0.0389785  
H97      H      0.702360000000     0.750780000000     0.912240000000     0.0391804  
H98      H      0.788800000000     0.813140000000     0.866330000000     0.0456533  
H99      H      0.752120000000     0.800030000000     0.732500000000     0.0376448  
H100     H      0.748420000000     0.730910000000     0.013310000000     0.0365826  
H101     H      0.751360000000     0.768150000000     0.342810000000     0.0411812  
H102     H      0.670590000000     0.743520000000     0.268970000000     0.0357418  
H103     H      0.723320000000     0.686720000000     0.275450000000     0.0358401  
H104     H      0.766650000000     0.748580000000     0.508630000000     0.0368205  
H105     H      0.652670000000     0.708210000000     0.232300000000     0.0391417  
H106     H      0.717380000000     0.790580000000     0.429290000000     0.0358328  
H107     H      0.768280000000     0.731990000000     0.433130000000     0.0356214  
H108     H      0.744020000000     0.815790000000     0.480170000000     0.0456144  
H109     H      0.712580000000     0.673630000000     0.196780000000     0.0456132  
H110     H      0.732250000000     0.749040000000     0.276920000000     0.0409252  
H111     H      0.659620000000     0.730870000000     0.189950000000     0.0441208  
H112     H      0.704730000000     0.726180000000     0.430570000000     0.0455262  
H113     H      0.695760000000     0.744160000000     0.230420000000     0.0377492  
H114     H      0.795260000000     0.756700000000     0.484140000000     0.0438933  
H115     H      0.688740000000     0.669310000000     0.236980000000     0.0393504  
H116     H      0.747360000000     0.795600000000     0.407160000000     0.0387007  
H117     H      0.777150000000     0.761330000000     0.409440000000     0.0384908  
H118     H      0.685590000000     0.706920000000     0.364370000000     0.0457326  
H119     H      0.726470000000     0.711010000000     0.234110000000     0.0378708  
H120     H      0.732210000000     0.788320000000     0.506000000000     0.0372403  
H121     H      0.730130000000     0.253210000000     0.699050000000     0.0451333  
H122     H      0.813270000000     0.213030000000     0.677360000000     0.035563   
H123     H      0.799720000000     0.274310000000     0.591420000000     0.0357759  
H124     H      0.708230000000     0.268040000000     0.835970000000     0.0380825  
H125     H      0.848000000000     0.217100000000     0.628360000000     0.037923   
H126     H      0.735130000000     0.315800000000     0.734680000000     0.0357544  
H127     H      0.747010000000     0.251370000000     0.813470000000     0.0356067  
H128     H      0.717530000000     0.337330000000     0.801660000000     0.0463016  
H129     H      0.817580000000     0.251350000000     0.526000000000     0.0446122  
H130     H      0.758280000000     0.237320000000     0.642250000000     0.041388   
H131     H      0.831520000000     0.189780000000     0.613160000000     0.0446608  
H132     H      0.789220000000     0.290410000000     0.765600000000     0.0414051  
H133     H      0.792840000000     0.209370000000     0.630220000000     0.0383367  
H134     H      0.729520000000     0.272330000000     0.881230000000     0.0447997  
H135     H      0.838840000000     0.258000000000     0.570300000000     0.0383502  
H136     H      0.755620000000     0.317340000000     0.782130000000     0.0385501  
H137     H      0.762630000000     0.279420000000     0.828440000000     0.0385395  
H138     H      0.817330000000     0.274690000000     0.708590000000     0.0451959  
H139     H      0.784820000000     0.245390000000     0.579800000000     0.0384328  
H140     H      0.700300000000     0.311100000000     0.783280000000     0.0379222  
H141     H      0.770920000000     0.296090000000     0.220260000000     0.0453473  
H142     H      0.822070000000     0.217170000000     0.238680000000     0.0356181  
H143     H      0.756660000000     0.217670000000     0.313270000000     0.0358001  
H144     H      0.762590000000     0.324040000000     0.086780000000     0.0394214  
H145     H      0.821020000000     0.179510000000     0.283040000000     0.03786    
H146     H      0.713280000000     0.281960000000     0.167160000000     0.035667   
H147     H      0.782690000000     0.286090000000     0.107060000000     0.0356373  
H148     H      0.694620000000     0.300660000000     0.097200000000     0.0436332  
H149     H      0.778360000000     0.200170000000     0.380730000000     0.0452385  
H150     H      0.787850000000     0.267310000000     0.276160000000     0.041543   
H151     H      0.844280000000     0.199370000000     0.304920000000     0.0444359  
H152     H      0.748950000000     0.234730000000     0.137560000000     0.0413826  
H153     H      0.820180000000     0.236190000000     0.288340000000     0.0387578  
H154     H      0.764300000000     0.305100000000     0.037400000000     0.0445206  
H155     H      0.777830000000     0.179940000000     0.332900000000     0.0382555  
H156     H      0.719210000000     0.265000000000     0.116180000000     0.0380565  
H157     H      0.759430000000     0.267450000000     0.081320000000     0.0385781  
H158     H      0.765510000000     0.205900000000     0.193870000000     0.0451067  
H159     H      0.781570000000     0.236520000000     0.332360000000     0.0388233  
H160     H      0.714010000000     0.321040000000     0.128310000000     0.0385418  
H161     H      0.733680000000     0.546970000000     0.987080000000     0.0415349  
H162     H      0.732820000000     0.457120000000     0.034270000000     0.0357735  
H163     H      0.716810000000     0.464140000000     0.894570000000     0.0358475  
H164     H      0.659910000000     0.582680000000     0.069370000000     0.0381656  
H165     H      0.757200000000     0.427690000000     0.992170000000     0.0365178  
H166     H      0.685600000000     0.570500000000     0.935490000000     0.03566    
H167     H      0.691140000000     0.551710000000     0.074060000000     0.0357707  
H168     H      0.681240000000     0.615440000000     0.956100000000     0.0443509  
H169     H      0.719080000000     0.418210000000     0.885420000000     0.0459271  
H170     H      0.749810000000     0.505870000000     0.969710000000     0.0449378  
H171     H      0.735840000000     0.411350000000     0.026860000000     0.0450355  
H172     H      0.661800000000     0.516430000000     0.996490000000     0.0452192  
H173     H      0.705050000000     0.443500000000     0.013890000000     0.0403208  
H174     H      0.686180000000     0.596290000000     0.094970000000     0.0458011  
H175     H      0.746950000000     0.431770000000     0.904800000000     0.0365961  
H176     H      0.710300000000     0.582590000000     0.968680000000     0.0382119  
H177     H      0.713430000000     0.571770000000     0.048960000000     0.0388661  
H178     H      0.677950000000     0.475300000000     0.980400000000     0.0418336  
H179     H      0.695320000000     0.447760000000     0.929230000000     0.0394906  
H180     H      0.656360000000     0.596210000000     0.972650000000     0.0372413  
H181     H      0.273210000000     0.770300000000     0.624930000000     0.0455823  
H182     H      0.298140000000     0.785230000000     0.791540000000     0.0357719  
H183     H      0.255270000000     0.721240000000     0.772850000000     0.035752   
H184     H      0.212260000000     0.783300000000     0.540200000000     0.0372304  
H185     H      0.321960000000     0.752820000000     0.824330000000     0.0405015  
H186     H      0.247780000000     0.831390000000     0.633510000000     0.0355419  
H187     H      0.210730000000     0.763800000000     0.613310000000     0.035712   
H188     H      0.218620000000     0.852820000000     0.580740000000     0.043863   
H189     H      0.266760000000     0.706610000000     0.851250000000     0.0434117  
H190     H      0.293070000000     0.751530000000     0.691120000000     0.0459672  
H191     H      0.309430000000     0.770180000000     0.869910000000     0.0428767  
H192     H      0.216700000000     0.798480000000     0.710380000000     0.0409982  
H193     H      0.272740000000     0.779260000000     0.827970000000     0.0370642  
H194     H      0.181690000000     0.784920000000     0.560190000000     0.0447637  
H195     H      0.290720000000     0.706230000000     0.810720000000     0.0398368  
H196     H      0.216460000000     0.828690000000     0.649800000000     0.0379633  
H197     H      0.195000000000     0.789550000000     0.638020000000     0.0385107  
H198     H      0.236670000000     0.780020000000     0.776420000000     0.0407714  
H199     H      0.248230000000     0.742600000000     0.817350000000     0.0370427  
H200     H      0.237920000000     0.830580000000     0.554350000000     0.0375324  
H201     H      0.261490000000     0.752230000000     0.240560000000     0.045426   
H202     H      0.177380000000     0.787810000000     0.271260000000     0.0358163  
H203     H      0.234730000000     0.839120000000     0.287570000000     0.0357881  
H204     H      0.269860000000     0.709670000000     0.118780000000     0.0400415  
H205     H      0.159360000000     0.825850000000     0.297210000000     0.0386422  
H206     H      0.291500000000     0.783770000000     0.152270000000     0.0358067  
H207     H      0.234070000000     0.732520000000     0.137780000000     0.0358292  
H208     H      0.311090000000     0.766900000000     0.082220000000     0.0438532  
H209     H      0.215640000000     0.854930000000     0.358620000000     0.0444593  
H210     H      0.237390000000     0.776220000000     0.294180000000     0.0413161  
H211     H      0.157760000000     0.803330000000     0.341680000000     0.0451471  
H212     H      0.231960000000     0.795090000000     0.130590000000     0.0411504  
H213     H      0.196600000000     0.785540000000     0.320440000000     0.0383242  
H214     H      0.253670000000     0.715750000000     0.067400000000     0.0436792  
H215     H      0.197970000000     0.860390000000     0.308580000000     0.0390256  
H216     H      0.272480000000     0.784800000000     0.102720000000     0.0375662  
H217     H      0.239330000000     0.755280000000     0.094420000000     0.0373118  
H218     H      0.207850000000     0.819120000000     0.184240000000     0.0451797  
H219     H      0.230290000000     0.815610000000     0.329960000000     0.0378875  
H220     H      0.310670000000     0.746080000000     0.129360000000     0.039522   
H221     H      0.508410000000     0.654870000000     0.988000000000     0.0450137  
H222     H      0.447930000000     0.721360000000     0.937080000000     0.0358933  
H223     H      0.438980000000     0.696760000000     0.071960000000     0.0356269  
H224     H      0.585400000000     0.667920000000     0.969180000000     0.0376584  
H225     H      0.412740000000     0.742540000000     0.965930000000     0.0387925  
H226     H      0.540530000000     0.670360000000     0.085790000000     0.0356502  
H227     H      0.554270000000     0.698190000000     0.954510000000     0.0357844  
H228     H      0.585170000000     0.669920000000     0.102490000000     0.0446361  
H229     H      0.393970000000     0.695800000000     0.061400000000     0.0443991  
H230     H      0.465550000000     0.666540000000     0.982570000000     0.0411189  
H231     H      0.402840000000     0.720240000000     0.925190000000     0.0448893  
H232     H      0.525520000000     0.726950000000     0.040240000000     0.0416578  
H233     H      0.434650000000     0.691450000000     0.947290000000     0.038108   
H234     H      0.599020000000     0.697980000000     0.970580000000     0.0452144  
H235     H      0.406900000000     0.726120000000     0.057110000000     0.038705   
H236     H      0.554860000000     0.700070000000     0.079400000000     0.0388715  
H237     H      0.562880000000     0.716290000000     0.002900000000     0.0387318  
H238     H      0.482680000000     0.738690000000     0.034510000000     0.0453625  
H239     H      0.429330000000     0.677070000000     0.026390000000     0.0380212  
H240     H      0.575910000000     0.648750000000     0.059320000000     0.0371461  
H241     H      0.279750000000     0.252410000000     0.831430000000     0.0454184  
H242     H      0.278660000000     0.252430000000     0.660690000000     0.0357307  
H243     H      0.209830000000     0.264750000000     0.719100000000     0.0359371  
H244     H      0.339100000000     0.292210000000     0.890450000000     0.039613   
H245     H      0.251360000000     0.256480000000     0.597870000000     0.038246   
H246     H      0.262930000000     0.311060000000     0.875990000000     0.0356432  
H247     H      0.328980000000     0.292960000000     0.812000000000     0.0358818  
H248     H      0.285960000000     0.337970000000     0.931160000000     0.0428828  
H249     H      0.190820000000     0.236250000000     0.661420000000     0.0444915  
H250     H      0.257990000000     0.236140000000     0.765610000000     0.0413943  
H251     H      0.259650000000     0.224590000000     0.602920000000     0.0437334  
H252     H      0.280740000000     0.324680000000     0.770140000000     0.0412459  
H253     H      0.261970000000     0.226920000000     0.684370000000     0.0380569  
H254     H      0.351490000000     0.320120000000     0.867660000000     0.0442599  
H255     H      0.202270000000     0.264770000000     0.639260000000     0.0392125  
H256     H      0.281110000000     0.334910000000     0.850440000000     0.0373876  
H257     H      0.318840000000     0.324540000000     0.813800000000     0.0376361  
H258     H      0.258890000000     0.308420000000     0.704350000000     0.0452954  
H259     H      0.222350000000     0.234040000000     0.718310000000     0.0378448  
H260     H      0.290590000000     0.305420000000     0.937400000000     0.0384652  
H261     H      0.236680000000     0.249710000000     0.263990000000     0.0413564  
H262     H      0.273710000000     0.329080000000     0.192210000000     0.0358859  
H263     H      0.316820000000     0.264910000000     0.177500000000     0.0357245  
H264     H      0.235250000000     0.269010000000     0.431570000000     0.0384846  
H265     H      0.282000000000     0.326350000000     0.112770000000     0.0394132  
H266     H      0.274480000000     0.222460000000     0.340650000000     0.03601    
H267     H      0.230020000000     0.285550000000     0.356750000000     0.035694   
H268     H      0.249360000000     0.199420000000     0.397680000000     0.0459209  
H269     H      0.342690000000     0.286970000000     0.120430000000     0.0436395  
H270     H      0.253330000000     0.266870000000     0.193910000000     0.0452576  
H271     H      0.299570000000     0.351320000000     0.135250000000     0.0454226  
H272     H      0.293920000000     0.284550000000     0.339820000000     0.0453593  
H273     H      0.305450000000     0.330130000000     0.206670000000     0.03823    
H274     H      0.204820000000     0.262570000000     0.413810000000     0.0433779  
H275     H      0.312120000000     0.281390000000     0.102470000000     0.0380661  
H276     H      0.242720000000     0.220760000000     0.326670000000     0.038186   
H277     H      0.217000000000     0.257250000000     0.335990000000     0.0378454  
H278     H      0.310590000000     0.301680000000     0.269750000000     0.0414424  
H279     H      0.330430000000     0.292960000000     0.198090000000     0.0380358  
H280     H      0.266550000000     0.224650000000     0.420220000000     0.0398651  
H281     H      0.493550000000     0.359730000000     0.962090000000     0.0415332  
H282     H      0.580570000000     0.377700000000     0.014540000000     0.0353661  
H283     H      0.575630000000     0.312840000000     0.935470000000     0.0357288  
H284     H      0.446510000000     0.336380000000     0.103070000000     0.0374243  
H285     H      0.610240000000     0.382000000000     0.955310000000     0.0365612  
H286     H      0.472580000000     0.302120000000     0.986820000000     0.0360726  
H287     H      0.479510000000     0.362410000000     0.076940000000     0.0355545  
H288     H      0.427390000000     0.304420000000     0.991940000000     0.0466954  
H289     H      0.620960000000     0.311620000000     0.928540000000     0.0438365  
H290     H      0.535360000000     0.365630000000     0.936570000000     0.045114   
H291     H      0.625860000000     0.377060000000     0.007800000000     0.0432522  
H292     H      0.518980000000     0.312630000000     0.069820000000     0.0451247  
H293     H      0.594150000000     0.349530000000     0.035130000000     0.0388652  
H294     H      0.434450000000     0.365350000000     0.083470000000     0.0442282  
H295     H      0.607000000000     0.337760000000     0.901670000000     0.0366258  
H296     H      0.460590000000     0.331670000000     0.969520000000     0.0392951  
H297     H      0.464750000000     0.367680000000     0.023350000000     0.0385778  
H298     H      0.560870000000     0.318910000000     0.044760000000     0.0415192  
H299     H      0.591290000000     0.311630000000     0.988940000000     0.0386396  
H300     H      0.441960000000     0.297620000000     0.044850000000     0.037713   
H301     H      0.298640000000     0.535670000000     0.953080000000     0.0452575  
H302     H      0.345870000000     0.479410000000     0.061750000000     0.035843   
H303     H      0.365600000000     0.472490000000     0.924290000000     0.0355081  
H304     H      0.288730000000     0.610340000000     0.995390000000     0.0388063  
H305     H      0.376270000000     0.447340000000     0.058320000000     0.0385013  
H306     H      0.338660000000     0.580950000000     0.902210000000     0.035653   
H307     H      0.311140000000     0.578660000000     0.035540000000     0.0358339  
H308     H      0.336110000000     0.627200000000     0.902050000000     0.0444992  
H309     H      0.366880000000     0.426260000000     0.932640000000     0.0432915  
H310     H      0.312640000000     0.493070000000     0.964080000000     0.0414922  
H311     H      0.347560000000     0.433550000000     0.071370000000     0.0462023  
H312     H      0.368470000000     0.562620000000     0.995840000000     0.0411268  
H313     H      0.325990000000     0.463130000000     0.023710000000     0.0389474  
H314     H      0.308070000000     0.624780000000     0.036380000000     0.0453816  
H315     H      0.389340000000     0.442280000000     0.965230000000     0.0371411  
H316     H      0.355870000000     0.595210000000     0.946900000000     0.0378798  
H317     H      0.339660000000     0.593860000000     0.025290000000     0.0385311  
H318     H      0.382610000000     0.520020000000     0.005980000000     0.0449968  
H319     H      0.337480000000     0.459150000000     0.943170000000     0.0379742  
H320     H      0.307290000000     0.612030000000     0.906290000000     0.0385092  
In1      In     0.357720000000     0.352490000000     0.017620000000     2.40526    
In2      In     0.322840000000     0.703630000000     0.973940000000     2.40201    
In3      In     0.699740000000     0.342710000000     0.956840000000     2.39195    
In4      In     0.667460000000     0.679680000000     0.061560000000     2.40657    
In5      In     0.850170000000     0.179310000000     0.459400000000     2.39527    
In6      In     0.816070000000     0.829350000000     0.563560000000     2.40086    
In7      In     0.155260000000     0.853060000000     0.471870000000     2.40253    
In8      In     0.192540000000     0.196660000000     0.517330000000     2.40968    
N1       N      0.148260000000     0.926930000000     0.491800000000    -0.168836   
N2       N      0.152930000000     0.977610000000     0.510770000000    -0.113549   
N3       N      0.192390000000     0.072440000000     0.549300000000    -0.113644   
N4       N      0.200680000000     0.123690000000     0.546030000000    -0.168435   
N5       N      0.084590000000     0.832420000000     0.475710000000    -0.167824   
N6       N      0.035640000000     0.818090000000     0.477630000000    -0.11317    
N7       N      0.933700000000     0.807980000000     0.500550000000    -0.113396   
N8       N      0.884590000000     0.813650000000     0.523330000000    -0.167674   
N9       N      0.836780000000     0.107650000000     0.492340000000    -0.168512   
N10      N      0.825440000000     0.059250000000     0.519230000000    -0.113145   
N11      N      0.813770000000     0.955890000000     0.548090000000    -0.113083   
N12      N      0.815850000000     0.904130000000     0.552800000000    -0.168329   
N13      N      0.122420000000     0.203660000000     0.476750000000    -0.168641   
N14      N      0.073650000000     0.207770000000     0.449880000000    -0.113262   
N15      N      0.971320000000     0.201900000000     0.426060000000    -0.113339   
N16      N      0.921160000000     0.194030000000     0.434650000000    -0.169024   
N17      N      0.796510000000     0.814610000000     0.693170000000    -0.168536   
N18      N      0.781110000000     0.801670000000     0.780510000000    -0.11333    
N19      N      0.738430000000     0.757460000000     0.935830000000    -0.11356    
N20      N      0.711440000000     0.727980000000     0.995740000000    -0.169175   
N21      N      0.682360000000     0.698610000000     0.191300000000    -0.167755   
N22      N      0.696040000000     0.714410000000     0.278100000000    -0.113315   
N23      N      0.740360000000     0.759050000000     0.431450000000    -0.113472   
N24      N      0.769550000000     0.786310000000     0.491350000000    -0.169729   
N25      N      0.828900000000     0.220430000000     0.566790000000    -0.168657   
N26      N      0.807200000000     0.245740000000     0.638940000000    -0.113432   
N27      N      0.740370000000     0.281710000000     0.769300000000    -0.113508   
N28      N      0.719290000000     0.305040000000     0.844280000000    -0.167586   
N29      N      0.812130000000     0.195760000000     0.345440000000    -0.168328   
N30      N      0.787710000000     0.216800000000     0.270990000000    -0.113441   
N31      N      0.749320000000     0.285250000000     0.142680000000    -0.113164   
N32      N      0.728970000000     0.308960000000     0.066810000000    -0.167938   
N33      N      0.728230000000     0.412020000000     0.955380000000    -0.168727   
N34      N      0.725460000000     0.463590000000     0.964640000000    -0.113776   
N35      N      0.686170000000     0.558390000000     0.003860000000    -0.113321   
N36      N      0.678160000000     0.607990000000     0.027140000000    -0.168067   
N37      N      0.294350000000     0.734140000000     0.859820000000    -0.168654   
N38      N      0.278420000000     0.752580000000     0.776130000000    -0.112971   
N39      N      0.232300000000     0.795920000000     0.622760000000    -0.113327   
N40      N      0.201500000000     0.819090000000     0.559680000000    -0.16924    
N41      N      0.183550000000     0.832730000000     0.351030000000    -0.168479   
N42      N      0.206160000000     0.813930000000     0.273350000000    -0.113376   
N43      N      0.263060000000     0.757270000000     0.151520000000    -0.113096   
N44      N      0.286570000000     0.736240000000     0.076940000000    -0.168587   
N45      N      0.395250000000     0.711640000000     0.994670000000    -0.168638   
N46      N      0.445910000000     0.711070000000     0.006320000000    -0.113376   
N47      N      0.545040000000     0.682160000000     0.017780000000    -0.113384   
N48      N      0.595210000000     0.679570000000     0.034620000000    -0.16872    
N49      N      0.223200000000     0.233630000000     0.621930000000    -0.168508   
N50      N      0.244890000000     0.262210000000     0.690000000000    -0.113116   
N51      N      0.295110000000     0.298250000000     0.844550000000    -0.112999   
N52      N      0.320740000000     0.324470000000     0.910810000000    -0.168234   
N53      N      0.319450000000     0.318770000000     0.117040000000    -0.168476   
N54      N      0.292380000000     0.294990000000     0.184580000000    -0.113247   
N55      N      0.255120000000     0.256080000000     0.349080000000    -0.11319    
N56      N      0.228930000000     0.231460000000     0.416790000000    -0.168068   
N57      N      0.626070000000     0.346660000000     0.961280000000    -0.170853   
N58      N      0.575430000000     0.346540000000     0.972080000000    -0.113418   
N59      N      0.478810000000     0.331240000000     0.033480000000    -0.113646   
N60      N      0.428040000000     0.333860000000     0.040740000000    -0.168432   
N61      N      0.361120000000     0.427140000000     0.004380000000    -0.168584   
N62      N      0.357640000000     0.478700000000     0.993490000000    -0.113463   
N63      N      0.323280000000     0.577020000000     0.967580000000    -0.11343    
N64      N      0.318700000000     0.628820000000     0.966910000000    -0.168179   
O1       O      0.328640000000     0.352250000000     0.072090000000    -0.493238   
O2       O      0.350220000000     0.320070000000     0.064840000000    -0.509603   
O3       O      0.322850000000     0.344520000000     0.979020000000    -0.509272   
O4       O      0.363720000000     0.387630000000     0.976010000000    -0.509916   
O5       O      0.391140000000     0.328670000000     0.005420000000    -0.493384   
O6       O      0.354280000000     0.391520000000     0.045020000000    -0.497973   
O7       O      0.356090000000     0.335490000000     0.947240000000    -0.49308    
O8       O      0.394150000000     0.357700000000     0.053050000000    -0.508497   
O9       O      0.296780000000     0.703610000000     0.913970000000    -0.505243   
O10      O      0.319180000000     0.735080000000     0.922540000000    -0.499786   
O11      O      0.289930000000     0.707500000000     0.020110000000    -0.498683   
O12      O      0.313610000000     0.665880000000     0.003640000000    -0.497221   
O13      O      0.360980000000     0.713420000000     0.950000000000    -0.498638   
O14      O      0.328580000000     0.667010000000     0.937740000000    -0.503085   
O15      O      0.318480000000     0.733420000000     0.027430000000    -0.505573   
O16      O      0.356830000000     0.700920000000     0.017510000000    -0.50583    
O17      O      0.731650000000     0.326770000000     0.996230000000    -0.496708   
O18      O      0.696580000000     0.323690000000     0.025330000000    -0.50588    
O19      O      0.712390000000     0.307810000000     0.920760000000    -0.497517   
O20      O      0.661840000000     0.327750000000     0.941440000000    -0.510924   
O21      O      0.718610000000     0.375360000000     0.990520000000    -0.5019     
O22      O      0.664280000000     0.361060000000     0.978280000000    -0.510199   
O23      O      0.707240000000     0.340230000000     0.881380000000    -0.492245   
O24      O      0.709820000000     0.378790000000     0.921110000000    -0.490596   
O25      O      0.688570000000     0.675460000000     0.127350000000    -0.496949   
O26      O      0.661540000000     0.703350000000     0.124200000000    -0.501569   
O27      O      0.703460000000     0.690370000000     0.029170000000    -0.507893   
O28      O      0.672920000000     0.649160000000     0.009620000000    -0.502844   
O29      O      0.628060000000     0.673210000000     0.081450000000    -0.505301   
O30      O      0.674090000000     0.639240000000     0.079000000000    -0.496794   
O31      O      0.675120000000     0.716830000000     0.027970000000    -0.503724   
O32      O      0.634940000000     0.687470000000     0.015920000000    -0.500468   
O33      O      0.814970000000     0.188180000000     0.421910000000    -0.494877   
O34      O      0.847510000000     0.187210000000     0.383920000000    -0.505916   
O35      O      0.842480000000     0.184490000000     0.534280000000    -0.504449   
O36      O      0.858790000000     0.143680000000     0.497670000000    -0.496004   
O37      O      0.883860000000     0.203550000000     0.464510000000    -0.508403   
O38      O      0.829310000000     0.143140000000     0.451510000000    -0.504598   
O39      O      0.836020000000     0.215030000000     0.490830000000    -0.496455   
O40      O      0.887230000000     0.169290000000     0.430570000000    -0.499708   
O41      O      0.805680000000     0.793330000000     0.528310000000    -0.510409   
O42      O      0.780330000000     0.822650000000     0.526180000000    -0.499248   
O43      O      0.820300000000     0.808760000000     0.630480000000    -0.493152   
O44      O      0.846110000000     0.828910000000     0.510600000000    -0.504325   
O45      O      0.805340000000     0.865230000000     0.528320000000    -0.497627   
O46      O      0.854150000000     0.814950000000     0.576100000000    -0.493515   
O47      O      0.791560000000     0.834560000000     0.624910000000    -0.505146   
O48      O      0.827900000000     0.867680000000     0.586410000000    -0.508549   
O49      O      0.187030000000     0.853280000000     0.521650000000    -0.50729    
O50      O      0.168960000000     0.819270000000     0.510730000000    -0.503526   
O51      O      0.155610000000     0.829560000000     0.408220000000    -0.500969   
O52      O      0.117270000000     0.851280000000     0.442000000000    -0.501755   
O53      O      0.146070000000     0.886410000000     0.515640000000    -0.505271   
O54      O      0.122760000000     0.835570000000     0.507110000000    -0.497538   
O55      O      0.183820000000     0.855780000000     0.416300000000    -0.498071   
O56      O      0.157800000000     0.893100000000     0.448560000000    -0.501911   
O57      O      0.198760000000     0.229370000000     0.470110000000    -0.508466   
O58      O      0.221030000000     0.197720000000     0.461940000000    -0.490328   
O59      O      0.190220000000     0.216980000000     0.584820000000    -0.493767   
O60      O      0.155110000000     0.214490000000     0.521110000000    -0.497033   
O61      O      0.187380000000     0.162940000000     0.563160000000    -0.509749   
O62      O      0.159910000000     0.185020000000     0.474970000000    -0.512508   
O63      O      0.225030000000     0.210790000000     0.556810000000    -0.513002   
O64      O      0.205710000000     0.157980000000     0.500980000000    -0.497178   


