data_structure

_audit_creation_method RASPA-1.0
_audit_creation_date 2023-5-25
_audit_author_name 'Poobodin Mano'

_cell_length_a    44.9448
_cell_length_b    41.2443
_cell_length_c    45.6826
_cell_angle_alpha 90
_cell_angle_beta  90
_cell_angle_gamma 90
_cell_volume      84682.6

_symmetry_cell_setting          triclinic
_symmetry_space_group_name_Hall 'P 1'
_symmetry_space_group_name_H-M  'P 1'
_symmetry_Int_Tables_number     1

_symmetry_equiv_pos_as_xyz 'x,y,z'

loop_
_atom_site_label
_atom_site_type_symbol
_atom_site_fract_x
_atom_site_fract_y
_atom_site_fract_z
_atom_site_charge
C1       C      0.892120000000     0.426290000000     0.912560000000     0.403499   
C2       C      0.915910000000     0.355600000000     0.840600000000     0.404702   
C3       C      0.831870000000     0.353200000000     0.896010000000     0.404309   
C4       C      0.850740000000     0.421940000000     0.820520000000     0.404623   
C5       C      0.072760000000     0.649160000000     0.048330000000     0.403874   
C6       C      0.137510000000     0.654220000000     0.128150000000     0.405231   
C7       C      0.139610000000     0.721890000000     0.055190000000     0.404866   
C8       C      0.058690000000     0.711200000000     0.120150000000     0.410084   
C9       C      0.354640000000     0.893080000000     0.901300000000     0.409446   
C10      C      0.415200000000     0.979300000000     0.897060000000     0.407887   
C11      C      0.418010000000     0.902590000000     0.830040000000     0.406438   
C12      C      0.342950000000     0.972300000000     0.834590000000     0.411663   
C13      C      0.660010000000     0.197250000000     0.105740000000     0.406785   
C14      C      0.598670000000     0.200290000000     0.183290000000     0.405598   
C15      C      0.590150000000     0.129150000000     0.108030000000     0.405382   
C16      C      0.659190000000     0.124980000000     0.180520000000     0.407879   
C17      C      0.332780000000     0.485810000000     0.310170000000     0.410991   
C18      C      0.398340000000     0.409850000000     0.313540000000     0.40661    
C19      C      0.400220000000     0.486630000000     0.382780000000     0.40627    
C20      C      0.332570000000     0.412910000000     0.384180000000     0.407963   
C21      C      0.590480000000     0.612240000000     0.593370000000     0.407945   
C22      C      0.582890000000     0.687690000000     0.659970000000     0.405138   
C23      C      0.653580000000     0.615160000000     0.669100000000     0.413634   
C24      C      0.660610000000     0.688340000000     0.599930000000     0.40616    
C25      C      0.924510000000     0.868600000000     0.349790000000     0.401621   
C26      C      0.854060000000     0.930910000000     0.337380000000     0.409684   
C27      C      0.837960000000     0.865050000000     0.408370000000     0.401958   
C28      C      0.910410000000     0.928990000000     0.425280000000     0.407856   
C29      C      0.100700000000     0.202560000000     0.639280000000     0.407249   
C30      C      0.165030000000     0.218090000000     0.571300000000     0.402139   
C31      C      0.163910000000     0.126330000000     0.630370000000     0.400103   
C32      C      0.107160000000     0.138390000000     0.554720000000     0.407214   
C33      C      0.941410000000     0.000140000000     0.459930000000    -0.0310521  
C34      C      0.081160000000     0.065700000000     0.518940000000    -0.0308532  
C35      C      0.066200000000     0.134470000000     0.518750000000    -0.00510455 
C36      C      0.105740000000     0.091310000000     0.521140000000    -0.00559517 
C37      C      0.027670000000     0.045860000000     0.467430000000    -0.0536106  
C38      C      0.995100000000     0.016600000000     0.512420000000    -0.0531841  
C39      C      0.033460000000     0.054360000000     0.496550000000     0.061907   
C40      C      0.042800000000     0.107670000000     0.516680000000    -0.0307696  
C41      C      0.989040000000     0.008410000000     0.483270000000     0.0617164  
C42      C      0.976940000000     0.955520000000     0.463540000000    -0.0418935  
C43      C      0.005720000000     0.023040000000     0.460750000000    -0.0557005  
C44      C      0.952020000000     0.930060000000     0.460750000000     0.0380766  
C45      C      0.915200000000     0.976660000000     0.457710000000    -0.00404734 
C46      C      0.017150000000     0.039320000000     0.519110000000    -0.0558637  
C47      C      0.688820000000     0.758560000000     0.557900000000    -0.0312821  
C48      C      0.802550000000     0.797500000000     0.447550000000    -0.0307816  
C49      C      0.789980000000     0.865370000000     0.434610000000    -0.00534515 
C50      C      0.814010000000     0.812550000000     0.419090000000    -0.00569729 
C51      C      0.733150000000     0.781650000000     0.475800000000    -0.053514   
C52      C      0.759450000000     0.778590000000     0.531210000000    -0.0531729  
C53      C      0.760570000000     0.796910000000     0.480580000000     0.061723   
C54      C      0.779370000000     0.848220000000     0.462420000000    -0.0308438  
C55      C      0.732020000000     0.763370000000     0.526430000000     0.0618238  
C56      C      0.717320000000     0.710700000000     0.544730000000    -0.0417484  
C57      C      0.718960000000     0.764900000000     0.498440000000    -0.0559576  
C58      C      0.707790000000     0.692550000000     0.572620000000     0.0378179  
C59      C      0.677940000000     0.743030000000     0.586380000000    -0.00408556 
C60      C      0.773720000000     0.795180000000     0.508520000000    -0.0558     
C61      C      0.184170000000     0.277130000000     0.513760000000    -0.0313166  
C62      C      0.312170000000     0.358520000000     0.446120000000    -0.0312385  
C63      C      0.283590000000     0.390240000000     0.396370000000    -0.00443044 
C64      C      0.331140000000     0.368410000000     0.419820000000    -0.00362063 
C65      C      0.256200000000     0.302580000000     0.455110000000    -0.0534779  
C66      C      0.239630000000     0.335420000000     0.506120000000    -0.053256   
C67      C      0.264700000000     0.334970000000     0.458930000000     0.0618338  
C68      C      0.267050000000     0.379030000000     0.423820000000    -0.0309593  
C69      C      0.230940000000     0.303100000000     0.502200000000     0.0618861  
C70      C      0.229430000000     0.260720000000     0.538860000000    -0.0416151  
C71      C      0.239530000000     0.286650000000     0.476540000000    -0.055974   
C72      C      0.212000000000     0.248510000000     0.565700000000     0.0369303  
C73      C      0.164650000000     0.266180000000     0.539300000000    -0.0040624  
C74      C      0.256460000000     0.351300000000     0.484750000000    -0.0559337  
C75      C      0.469180000000     0.514280000000     0.418120000000    -0.031176   
C76      C      0.524090000000     0.578910000000     0.557820000000    -0.030916   
C77      C      0.588220000000     0.579690000000     0.548060000000    -0.00565003 
C78      C      0.545320000000     0.579870000000     0.583980000000    -0.00499709 
C79      C      0.508980000000     0.523530000000     0.504030000000    -0.0535498  
C80      C      0.485320000000     0.573830000000     0.470230000000    -0.0533025  
C81      C      0.517500000000     0.555570000000     0.509770000000     0.0616657  
C82      C      0.565340000000     0.578450000000     0.523270000000    -0.0307111  
C83      C      0.477040000000     0.541770000000     0.464290000000     0.0618074  
C84      C      0.427660000000     0.523200000000     0.451310000000    -0.0419215  
C85      C      0.488820000000     0.516590000000     0.481600000000    -0.0559385  
C86      C      0.404880000000     0.522070000000     0.426130000000     0.0377957  
C87      C      0.448620000000     0.513110000000     0.391490000000    -0.00419591 
C88      C      0.505260000000     0.580810000000     0.492840000000    -0.0558365  
C89      C      0.821000000000     0.001160000000     0.301160000000    -0.0315052  
C90      C      0.693530000000     0.051270000000     0.211380000000    -0.0308145  
C91      C      0.696870000000     0.121340000000     0.219510000000    -0.00473517 
C92      C      0.666240000000     0.072220000000     0.204850000000    -0.00483882 
C93      C      0.734010000000     0.035350000000     0.274350000000    -0.0535854  
C94      C      0.780470000000     0.014890000000     0.238040000000    -0.0531791  
C95      C      0.734690000000     0.045380000000     0.245080000000     0.0619644  
C96      C      0.722840000000     0.098310000000     0.225390000000    -0.0307584  
C97      C      0.779870000000     0.005000000000     0.267360000000     0.0618646  
C98      C      0.792900000000     0.952790000000     0.287980000000    -0.0419422  
C99      C      0.756350000000     0.015320000000     0.285490000000    -0.0558253  
C100     C      0.819240000000     0.930420000000     0.295500000000     0.0382737  
C101     C      0.848610000000     0.981180000000     0.308600000000    -0.00326289 
C102     C      0.758100000000     0.034920000000     0.226890000000    -0.0558919  
C103     C      0.434970000000     0.334350000000     0.290680000000    -0.0311592  
C104     C      0.565850000000     0.274670000000     0.211480000000    -0.0306975  
C105     C      0.563340000000     0.205500000000     0.224460000000    -0.00488274 
C106     C      0.593500000000     0.253570000000     0.207380000000    -0.00511994 
C107     C      0.522710000000     0.296890000000     0.270420000000    -0.0536655  
C108     C      0.477270000000     0.311330000000     0.230670000000    -0.0532008  
C109     C      0.523070000000     0.282790000000     0.242550000000     0.0620095  
C110     C      0.536730000000     0.228260000000     0.228130000000    -0.0308316  
C111     C      0.476850000000     0.325330000000     0.258580000000     0.062036   
C112     C      0.462960000000     0.380200000000     0.271600000000    -0.0417231  
C113     C      0.499860000000     0.318050000000     0.278460000000    -0.0559957  
C114     C      0.436190000000     0.403190000000     0.274830000000     0.0378097  
C115     C      0.406890000000     0.354810000000     0.294370000000    -0.00375687 
C116     C      0.500170000000     0.290260000000     0.222600000000    -0.0558884  
C117     C      0.273550000000     0.993050000000     0.795560000000    -0.0313597  
C118     C      0.227250000000     0.091530000000     0.669630000000    -0.0307039  
C119     C      0.163320000000     0.080550000000     0.665250000000    -0.00558504 
C120     C      0.211150000000     0.098130000000     0.640750000000    -0.0055653  
C121     C      0.242610000000     0.024160000000     0.709840000000    -0.05349    
C122     C      0.250900000000     0.063980000000     0.758700000000    -0.053197   
C123     C      0.229110000000     0.054760000000     0.710650000000     0.0617126  
C124     C      0.181270000000     0.074270000000     0.693170000000    -0.0308677  
C125     C      0.264340000000     0.033360000000     0.757920000000     0.0619153  
C126     C      0.314710000000     0.022660000000     0.773750000000    -0.0416966  
C127     C      0.260230000000     0.013530000000     0.733150000000    -0.0559181  
C128     C      0.334280000000     0.018210000000     0.801070000000     0.037815   
C129     C      0.290920000000     0.987180000000     0.823880000000    -0.00355155 
C130     C      0.233550000000     0.074760000000     0.735260000000    -0.0557059  
C131     C      0.443970000000     0.860270000000     0.763310000000    -0.0315247  
C132     C      0.550070000000     0.732950000000     0.721830000000    -0.0307736  
C133     C      0.539080000000     0.723640000000     0.659450000000    -0.00451752 
C134     C      0.559710000000     0.701340000000     0.707170000000    -0.00492332 
C135     C      0.482540000000     0.768210000000     0.735830000000    -0.0534649  
C136     C      0.512660000000     0.826910000000     0.743580000000    -0.0531864  
C137     C      0.510570000000     0.772540000000     0.723000000000     0.0617505  
C138     C      0.530130000000     0.754210000000     0.676290000000    -0.0309774  
C139     C      0.484700000000     0.822510000000     0.756530000000     0.0618923  
C140     C      0.470460000000     0.838870000000     0.805410000000    -0.0418003  
C141     C      0.469660000000     0.792890000000     0.752520000000    -0.055964   
C142     C      0.462750000000     0.868580000000     0.824290000000     0.0376656  
C143     C      0.435040000000     0.891030000000     0.779840000000    -0.00356451 
C144     C      0.525600000000     0.802180000000     0.726990000000    -0.0558478  
C145     C      0.479260000000     0.007500000000     0.939590000000    -0.0310395  
C146     C      0.523570000000     0.109880000000     0.063670000000    -0.0309239  
C147     C      0.583020000000     0.083730000000     0.073790000000    -0.00478226 
C148     C      0.538930000000     0.115920000000     0.093060000000    -0.00506574 
C149     C      0.500370000000     0.039980000000     0.027500000000    -0.0534093  
C150     C      0.498940000000     0.077120000000     0.976310000000    -0.0533031  
C151     C      0.516360000000     0.069090000000     0.026220000000     0.0617963  
C152     C      0.565740000000     0.079220000000     0.045250000000    -0.0309502  
C153     C      0.483030000000     0.047950000000     0.977560000000     0.0618454  
C154     C      0.434620000000     0.034310000000     0.957590000000    -0.0416034  
C155     C      0.483860000000     0.029380000000     0.003430000000    -0.0557929  
C156     C      0.417730000000     0.027720000000     0.928860000000     0.0374458  
C157     C      0.464820000000     0.000380000000     0.910000000000    -0.00410957 
C158     C      0.515530000000     0.087680000000     0.000370000000    -0.0557187  
C159     C      0.026000000000     0.775200000000     0.163840000000    -0.0311872  
C160     C      0.955020000000     0.802810000000     0.306710000000    -0.0306587  
C161     C      0.965700000000     0.872040000000     0.314060000000    -0.00525447 
C162     C      0.951820000000     0.818510000000     0.336910000000    -0.00568816 
C163     C      0.013070000000     0.794340000000     0.256770000000    -0.0534117  
C164     C      0.969380000000     0.783030000000     0.214380000000    -0.0530239  
C165     C      0.983810000000     0.804480000000     0.261940000000     0.0619464  
C166     C      0.968290000000     0.854750000000     0.284550000000    -0.0309108  
C167     C      0.998620000000     0.772730000000     0.209280000000     0.0618506  
C168     C      0.016200000000     0.722990000000     0.187090000000    -0.0418092  
C169     C      0.020530000000     0.778660000000     0.230680000000    -0.0556779  
C170     C      0.019620000000     0.704820000000     0.157850000000     0.0378623  
C171     C      0.029040000000     0.759370000000     0.133710000000    -0.00390657 
C172     C      0.961960000000     0.798860000000     0.240420000000    -0.0557132  
C173     C      0.195590000000     0.742630000000     0.998870000000    -0.0313438  
C174     C      0.307390000000     0.865960000000     0.961590000000    -0.0309391  
C175     C      0.332520000000     0.838750000000     0.908100000000    -0.00478079 
C176     C      0.337920000000     0.877280000000     0.950790000000    -0.00502936 
C177     C      0.278770000000     0.793850000000     0.986470000000    -0.0534873  
C178     C      0.222010000000     0.816520000000     0.971960000000    -0.0531883  
C179     C      0.275770000000     0.818820000000     0.965890000000     0.0616178  
C180     C      0.302280000000     0.828660000000     0.920500000000    -0.0309334  
C181     C      0.225000000000     0.791290000000     0.992270000000     0.0618657  
C182     C      0.196030000000     0.784150000000     0.036550000000    -0.041624   
C183     C      0.253660000000     0.780220000000     0.999700000000    -0.0560944  
C184     C      0.165020000000     0.774310000000     0.047800000000     0.0370996  
C185     C      0.164710000000     0.730790000000     0.007960000000    -0.00414704 
C186     C      0.247120000000     0.830340000000     0.958930000000    -0.0557329  
C187     C      0.198040000000     0.640800000000     0.182000000000    -0.0314388  
C188     C      0.275690000000     0.506550000000     0.254800000000    -0.0309139  
C189     C      0.320230000000     0.539620000000     0.290410000000    -0.00489821 
C190     C      0.303230000000     0.487960000000     0.264940000000    -0.00432567 
C191     C      0.264570000000     0.569910000000     0.207890000000    -0.0535521  
C192     C      0.209250000000     0.579940000000     0.234390000000    -0.0531065  
C193     C      0.259630000000     0.558480000000     0.236340000000     0.0619318  
C194     C      0.292000000000     0.555920000000     0.278830000000    -0.0307604  
C195     C      0.214220000000     0.591430000000     0.205960000000     0.0618513  
C196     C      0.179170000000     0.588660000000     0.165840000000    -0.041656   
C197     C      0.242080000000     0.586160000000     0.192690000000    -0.0559024  
C198     C      0.150220000000     0.603670000000     0.154060000000     0.0370937  
C199     C      0.170260000000     0.658550000000     0.171170000000    -0.00392376 
C200     C      0.231660000000     0.563460000000     0.249500000000    -0.0559372  
C201     C      0.983460000000     0.340770000000     0.797150000000    -0.0314856  
C202     C      0.039190000000     0.221300000000     0.691190000000    -0.0310106  
C203     C      0.094120000000     0.250890000000     0.669980000000    -0.00470694 
C204     C      0.051590000000     0.210870000000     0.661500000000    -0.00426122 
C205     C      0.009720000000     0.292510000000     0.716500000000    -0.053481   
C206     C      0.019350000000     0.269930000000     0.773430000000    -0.0530706  
C207     C      0.031100000000     0.268450000000     0.721470000000     0.0619308  
C208     C      0.079410000000     0.259390000000     0.699170000000    -0.0308871  
C209     C      0.997900000000     0.293950000000     0.768440000000     0.0618443  
C210     C      0.949080000000     0.295820000000     0.790420000000    -0.0417224  
C211     C      0.993130000000     0.305140000000     0.739700000000    -0.055963   
C212     C      0.932300000000     0.303860000000     0.818830000000     0.0372609  
C213     C      0.968540000000     0.350810000000     0.825850000000    -0.0038179  
C214     C      0.035810000000     0.257140000000     0.750190000000    -0.0559605  
C215     C      0.678510000000     0.253550000000     0.045140000000    -0.0315778  
C216     C      0.804180000000     0.294430000000     0.949570000000    -0.0307791  
C217     C      0.779680000000     0.343550000000     0.910480000000    -0.00524066 
C218     C      0.819550000000     0.301640000000     0.920450000000    -0.00528009 
C219     C      0.736630000000     0.262730000000     0.969320000000    -0.0534854  
C220     C      0.744930000000     0.290870000000     0.024410000000    -0.0533735  
C221     C      0.756010000000     0.289120000000     0.972310000000     0.0617478  
C222     C      0.765650000000     0.334570000000     0.939930000000    -0.0309958  
C223     C      0.725660000000     0.264410000000     0.021440000000     0.0622022  
C224     C      0.721090000000     0.218940000000     0.054630000000    -0.0417919  
C225     C      0.721570000000     0.250350000000     0.993640000000    -0.0561511  
C226     C      0.709450000000     0.209270000000     0.085070000000     0.0373997  
C227     C      0.664670000000     0.245920000000     0.074940000000    -0.00325544 
C228     C      0.760080000000     0.303160000000     0.000130000000    -0.0556204  
C229     C      0.718720000000     0.590850000000     0.712400000000    -0.0316877  
C230     C      0.792150000000     0.445620000000     0.770950000000    -0.0308388  
C231     C      0.849440000000     0.471350000000     0.789810000000    -0.00535018 
C232     C      0.818260000000     0.422740000000     0.776830000000    -0.00509302 
C233     C      0.778310000000     0.508300000000     0.722610000000    -0.0535156  
C234     C      0.734030000000     0.528940000000     0.761380000000    -0.0531195  
C235     C      0.779410000000     0.498500000000     0.751940000000     0.0618252  
C236     C      0.822430000000     0.492870000000     0.783500000000    -0.0307029  
C237     C      0.732860000000     0.538630000000     0.732020000000     0.061984   
C238     C      0.689710000000     0.542840000000     0.700450000000    -0.0419175  
C239     C      0.755280000000     0.528220000000     0.712640000000    -0.0559203  
C240     C      0.661540000000     0.563020000000     0.694540000000     0.0377732  
C241     C      0.692000000000     0.613160000000     0.707600000000    -0.00293235 
C242     C      0.757070000000     0.509060000000     0.771350000000    -0.0557868  
C243     C      0.006720000000     0.617630000000     0.011170000000    -0.0311121  
C244     C      0.949970000000     0.461980000000     0.956600000000    -0.0306762  
C245     C      0.887850000000     0.475690000000     0.943070000000    -0.00548389 
C246     C      0.927620000000     0.434250000000     0.953300000000    -0.00534632 
C247     C      0.958790000000     0.526170000000     0.003560000000    -0.0533388  
C248     C      0.993980000000     0.555560000000     0.960590000000    -0.0531665  
C249     C      0.955590000000     0.516790000000     0.974270000000     0.0618258  
C250     C      0.911320000000     0.502280000000     0.946830000000    -0.0306003  
C251     C      0.997290000000     0.564820000000     0.989900000000     0.0619183  
C252     C      0.043770000000     0.574730000000     0.014990000000    -0.041658   
C253     C      0.979480000000     0.549930000000     0.011420000000    -0.0557499  
C254     C      0.069260000000     0.599300000000     0.018570000000     0.037461   
C255     C      0.030450000000     0.644020000000     0.014130000000    -0.00379389 
C256     C      0.973370000000     0.531720000000     0.952750000000    -0.0557275  
H1       H      0.021260000000     0.045360000000     0.541800000000     0.042136   
H2       H      0.933520000000     0.022780000000     0.470690000000     0.0365318  
H3       H      0.995780000000     0.945490000000     0.476580000000     0.0410404  
H4       H      0.071720000000     0.142680000000     0.496210000000     0.0373148  
H5       H      0.905300000000     0.973730000000     0.479860000000     0.0394838  
H6       H      0.090330000000     0.044060000000     0.507510000000     0.0359317  
H7       H      0.023690000000     0.116910000000     0.503620000000     0.036318   
H8       H      0.124090000000     0.081700000000     0.534960000000     0.0439232  
H9       H      0.960890000000     0.909760000000     0.447320000000     0.0373179  
H10      H      0.982520000000     0.005470000000     0.529970000000     0.046456   
H11      H      0.897890000000     0.987530000000     0.443370000000     0.0462781  
H12      H      0.040080000000     0.057180000000     0.449860000000     0.0454215  
H13      H      0.949100000000     0.006350000000     0.437440000000     0.0393906  
H14      H      0.056610000000     0.155460000000     0.530750000000     0.0464559  
H15      H      0.074360000000     0.058290000000     0.541410000000     0.0390556  
H16      H      0.034680000000     0.101840000000     0.539100000000     0.0399133  
H17      H      0.001600000000     0.017040000000     0.438040000000     0.04177    
H18      H      0.985710000000     0.960740000000     0.441230000000     0.0406571  
H19      H      0.114770000000     0.095780000000     0.498840000000     0.0370439  
H20      H      0.795010000000     0.806510000000     0.512750000000     0.0419865  
H21      H      0.689940000000     0.785280000000     0.561150000000     0.036195   
H22      H      0.739440000000     0.701730000000     0.537170000000     0.0408578  
H23      H      0.771400000000     0.865630000000     0.418540000000     0.0380258  
H24      H      0.691610000000     0.752490000000     0.604780000000     0.0397327  
H25      H      0.798560000000     0.771210000000     0.443680000000     0.036323   
H26      H      0.758130000000     0.859620000000     0.469590000000     0.0359795  
H27      H      0.836040000000     0.801760000000     0.413800000000     0.0466033  
H28      H      0.703620000000     0.666880000000     0.566400000000     0.0382503  
H29      H      0.769860000000     0.777390000000     0.552560000000     0.0466519  
H30      H      0.654570000000     0.750740000000     0.590320000000     0.0443193  
H31      H      0.722860000000     0.782610000000     0.454380000000     0.045386   
H32      H      0.672390000000     0.753510000000     0.540230000000     0.0378234  
H33      H      0.795430000000     0.890970000000     0.440050000000     0.0445427  
H34      H      0.819910000000     0.799920000000     0.464810000000     0.0390481  
H35      H      0.796190000000     0.851860000000     0.480010000000     0.0385848  
H36      H      0.697930000000     0.753070000000     0.494090000000     0.0414316  
H37      H      0.701100000000     0.705120000000     0.526990000000     0.0405503  
H38      H      0.798420000000     0.806140000000     0.401100000000     0.039067   
H39      H      0.262980000000     0.376250000000     0.488340000000     0.0417276  
H40      H      0.172810000000     0.297580000000     0.502450000000     0.0363053  
H41      H      0.252190000000     0.268560000000     0.545530000000     0.0408601  
H42      H      0.279580000000     0.372380000000     0.378570000000     0.0394727  
H43      H      0.158690000000     0.287780000000     0.552630000000     0.0401206  
H44      H      0.322730000000     0.337070000000     0.456660000000     0.0359243  
H45      H      0.243770000000     0.372900000000     0.417590000000     0.0361207  
H46      H      0.352910000000     0.377610000000     0.427920000000     0.0436398  
H47      H      0.222860000000     0.225770000000     0.573270000000     0.038924   
H48      H      0.233320000000     0.348310000000     0.525820000000     0.0464633  
H49      H      0.143620000000     0.255990000000     0.530350000000     0.0446799  
H50      H      0.262560000000     0.289680000000     0.435430000000     0.045661   
H51      H      0.186430000000     0.256750000000     0.497920000000     0.0379151  
H52      H      0.274070000000     0.413810000000     0.389130000000     0.0439984  
H53      H      0.311820000000     0.378670000000     0.462370000000     0.0382842  
H54      H      0.266300000000     0.399310000000     0.439900000000     0.0380952  
H55      H      0.233300000000     0.261610000000     0.473060000000     0.0414925  
H56      H      0.232280000000     0.240140000000     0.523310000000     0.040148   
H57      H      0.335680000000     0.346520000000     0.406330000000     0.0403432  
H58      H      0.511130000000     0.605820000000     0.497080000000     0.041617   
H59      H      0.491220000000     0.523680000000     0.410960000000     0.0362575  
H60      H      0.419090000000     0.538670000000     0.469470000000     0.0407143  
H61      H      0.596320000000     0.554660000000     0.552300000000     0.0382954  
H62      H      0.449090000000     0.537170000000     0.380530000000     0.0402912  
H63      H      0.503420000000     0.566090000000     0.564640000000     0.036019   
H64      H      0.575330000000     0.565200000000     0.504450000000     0.0359116  
H65      H      0.535060000000     0.594710000000     0.601620000000     0.0448918  
H66      H      0.384970000000     0.508850000000     0.434290000000     0.0369781  
H67      H      0.476220000000     0.593460000000     0.457270000000     0.0464272  
H68      H      0.457550000000     0.495050000000     0.375690000000     0.0454968  
H69      H      0.517980000000     0.503910000000     0.517070000000     0.0454037  
H70      H      0.472340000000     0.489190000000     0.426590000000     0.0379272  
H71      H      0.607560000000     0.594460000000     0.540820000000     0.044654   
H72      H      0.518040000000     0.604150000000     0.551490000000     0.038796   
H73      H      0.560290000000     0.603650000000     0.516090000000     0.0380369  
H74      H      0.482510000000     0.491630000000     0.477730000000     0.0413976  
H75      H      0.430290000000     0.498260000000     0.460310000000     0.0402652  
H76      H      0.548120000000     0.554800000000     0.592480000000     0.0389944  
H77      H      0.759130000000     0.042340000000     0.204190000000     0.0421552  
H78      H      0.828370000000     0.025450000000     0.293390000000     0.0365585  
H79      H      0.778760000000     0.941430000000     0.270750000000     0.0409657  
H80      H      0.685860000000     0.127100000000     0.240680000000     0.0375556  
H81      H      0.863910000000     0.981600000000     0.289470000000     0.0402951  
H82      H      0.685740000000     0.026900000000     0.218550000000     0.0360906  
H83      H      0.736920000000     0.108970000000     0.242990000000     0.0362251  
H84      H      0.654300000000     0.061780000000     0.185720000000     0.0450739  
H85      H      0.809970000000     0.908380000000     0.306140000000     0.0368909  
H86      H      0.798420000000     0.007140000000     0.223870000000     0.0465755  
H87      H      0.860350000000     0.992950000000     0.327200000000     0.046055   
H88      H      0.716140000000     0.043230000000     0.288570000000     0.0455165  
H89      H      0.807510000000     0.004560000000     0.321370000000     0.0391015  
H90      H      0.705800000000     0.144370000000     0.210410000000     0.0457768  
H91      H      0.706770000000     0.048220000000     0.190960000000     0.0391673  
H92      H      0.736630000000     0.096170000000     0.205220000000     0.039543   
H93      H      0.755360000000     0.008040000000     0.308230000000     0.0416493  
H94      H      0.778760000000     0.955340000000     0.307880000000     0.0404794  
H95      H      0.650960000000     0.071160000000     0.223960000000     0.0379797  
H96      H      0.500030000000     0.279840000000     0.200860000000     0.0421999  
H97      H      0.428160000000     0.308840000000     0.286370000000     0.036245   
H98      H      0.477710000000     0.388600000000     0.253490000000     0.0410145  
H99      H      0.574380000000     0.202570000000     0.246080000000     0.0370055  
H100     H      0.392030000000     0.350380000000     0.275330000000     0.039872   
H101     H      0.573190000000     0.299650000000     0.217240000000     0.0362443  
H102     H      0.522550000000     0.218930000000     0.246240000000     0.0360784  
H103     H      0.606470000000     0.262960000000     0.188470000000     0.0464286  
H104     H      0.444840000000     0.426920000000     0.282660000000     0.0387445  
H105     H      0.459760000000     0.316810000000     0.215150000000     0.0466224  
H106     H      0.394940000000     0.346480000000     0.314310000000     0.0452328  
H107     H      0.540240000000     0.291460000000     0.285930000000     0.045355   
H108     H      0.447910000000     0.334870000000     0.311470000000     0.0384384  
H109     H      0.555150000000     0.181270000000     0.217430000000     0.0454063  
H110     H      0.553380000000     0.275810000000     0.190440000000     0.0399162  
H111     H      0.523350000000     0.228030000000     0.207610000000     0.0397671  
H112     H      0.500100000000     0.328650000000     0.300120000000     0.0415379  
H113     H      0.476340000000     0.381290000000     0.292100000000     0.0406894  
H114     H      0.607640000000     0.255750000000     0.227250000000     0.0377063  
H115     H      0.223850000000     0.098750000000     0.736240000000     0.0419014  
H116     H      0.249410000000     0.994080000000     0.800940000000     0.0362759  
H117     H      0.321170000000     0.045280000000     0.761960000000     0.0410106  
H118     H      0.160400000000     0.057160000000     0.653490000000     0.0379746  
H119     H      0.283450000000     0.005090000000     0.840520000000     0.0396626  
H120     H      0.250580000000     0.084370000000     0.664570000000     0.0362521  
H121     H      0.170470000000     0.054200000000     0.705500000000     0.0360084  
H122     H      0.221830000000     0.119220000000     0.629840000000     0.0472849  
H123     H      0.357370000000     0.013500000000     0.793390000000     0.0387779  
H124     H      0.254210000000     0.079670000000     0.777430000000     0.0467446  
H125     H      0.285270000000     0.962640000000     0.832310000000     0.0438474  
H126     H      0.239720000000     0.008690000000     0.690900000000     0.045403   
H127     H      0.277270000000     0.972210000000     0.780500000000     0.0381786  
H128     H      0.140850000000     0.089540000000     0.671430000000     0.0445001  
H129     H      0.227850000000     0.114200000000     0.682880000000     0.0394942  
H130     H      0.180690000000     0.096460000000     0.707030000000     0.0383605  
H131     H      0.270810000000     0.990010000000     0.731730000000     0.0416164  
H132     H      0.318920000000     0.002110000000     0.758460000000     0.0411843  
H133     H      0.213950000000     0.076690000000     0.626250000000     0.0389728  
H134     H      0.547400000000     0.806040000000     0.717560000000     0.0419663  
H135     H      0.445820000000     0.866260000000     0.739620000000     0.0362419  
H136     H      0.491750000000     0.827820000000     0.813040000000     0.0407715  
H137     H      0.519150000000     0.707890000000     0.657010000000     0.0386244  
H138     H      0.450240000000     0.911010000000     0.773260000000     0.0405241  
H139     H      0.544930000000     0.727720000000     0.745200000000     0.0362809  
H140     H      0.510040000000     0.764770000000     0.665690000000     0.0359808  
H141     H      0.581000000000     0.693240000000     0.717200000000     0.0456329  
H142     H      0.457570000000     0.859640000000     0.846690000000     0.0378757  
H143     H      0.524570000000     0.849480000000     0.746650000000     0.0466187  
H144     H      0.412170000000     0.898040000000     0.773010000000     0.0441379  
H145     H      0.470820000000     0.745460000000     0.733120000000     0.0455197  
H146     H      0.426150000000     0.841740000000     0.765950000000     0.0379604  
H147     H      0.546470000000     0.730750000000     0.637120000000     0.0451583  
H148     H      0.568810000000     0.750610000000     0.721110000000     0.0391979  
H149     H      0.548470000000     0.772290000000     0.674810000000     0.0388762  
H150     H      0.448150000000     0.788760000000     0.762500000000     0.0415127  
H151     H      0.452810000000     0.820200000000     0.808510000000     0.0403993  
H152     H      0.542700000000     0.682440000000     0.711790000000     0.0388548  
H153     H      0.527800000000     0.110180000000     0.998760000000     0.0415263  
H154     H      0.503660000000     0.010230000000     0.936170000000     0.0365194  
H155     H      0.425870000000     0.056690000000     0.968260000000     0.0411258  
H156     H      0.580670000000     0.061360000000     0.087190000000     0.0394144  
H157     H      0.472080000000     0.019180000000     0.894090000000     0.0402234  
H158     H      0.499090000000     0.109360000000     0.067380000000     0.036129   
H159     H      0.572720000000     0.055850000000     0.035160000000     0.0360082  
H160     H      0.533090000000     0.140690000000     0.100770000000     0.0444967  
H161     H      0.394430000000     0.021370000000     0.934750000000     0.0387083  
H162     H      0.498610000000     0.091580000000     0.956520000000     0.0464801  
H163     H      0.473140000000     0.976600000000     0.901950000000     0.0463958  
H164     H      0.500900000000     0.025380000000     0.047200000000     0.0456573  
H165     H      0.475540000000     0.986520000000     0.954500000000     0.0389922  
H166     H      0.607020000000     0.086690000000     0.068500000000     0.0441593  
H167     H      0.528670000000     0.130330000000     0.048560000000     0.0381511  
H168     H      0.571550000000     0.099170000000     0.029830000000     0.0380458  
H169     H      0.471920000000     0.006660000000     0.004930000000     0.0417614  
H170     H      0.430210000000     0.013840000000     0.972880000000     0.0408464  
H171     H      0.530090000000     0.098340000000     0.109340000000     0.0390088  
H172     H      0.939220000000     0.806670000000     0.243770000000     0.0424682  
H173     H      0.017360000000     0.800270000000     0.160790000000     0.0368357  
H174     H      0.000700000000     0.709570000000     0.201800000000     0.041316   
H175     H      0.988230000000     0.873570000000     0.324020000000     0.0376871  
H176     H      0.007410000000     0.761520000000     0.122070000000     0.0410122  
H177     H      0.962360000000     0.777250000000     0.309740000000     0.0365407  
H178     H      0.985370000000     0.867490000000     0.271180000000     0.0362619  
H179     H      0.933910000000     0.805890000000     0.349230000000     0.0475567  
H180     H      0.031070000000     0.681510000000     0.162590000000     0.0382108  
H181     H      0.952330000000     0.778740000000     0.198090000000     0.0467631  
H182     H      0.045890000000     0.772990000000     0.120820000000     0.046591   
H183     H      0.030140000000     0.798660000000     0.273050000000     0.0455356  
H184     H      0.048400000000     0.776810000000     0.174180000000     0.0391717  
H185     H      0.957630000000     0.897190000000     0.310330000000     0.0453701  
H186     H      0.932880000000     0.802620000000     0.295760000000     0.0398074  
H187     H      0.946580000000     0.856320000000     0.272890000000     0.0399311  
H188     H      0.043330000000     0.771140000000     0.227240000000     0.0417618  
H189     H      0.038300000000     0.723370000000     0.198110000000     0.0407154  
H190     H      0.973010000000     0.815070000000     0.349090000000     0.0384663  
H191     H      0.244180000000     0.849870000000     0.943380000000     0.042117   
H192     H      0.198440000000     0.737970000000     0.975030000000     0.0364979  
H193     H      0.200170000000     0.810330000000     0.041100000000     0.0408528  
H194     H      0.349450000000     0.820760000000     0.915250000000     0.0369587  
H195     H      0.148010000000     0.741120000000     0.992610000000     0.0399158  
H196     H      0.306960000000     0.867910000000     0.985890000000     0.0360084  
H197     H      0.298090000000     0.802940000000     0.914380000000     0.0360345  
H198     H      0.340660000000     0.903390000000     0.956220000000     0.0448722  
H199     H      0.165530000000     0.775710000000     0.072110000000     0.0380091  
H200     H      0.200120000000     0.825450000000     0.966230000000     0.0467528  
H201     H      0.163950000000     0.703970000000     0.005560000000     0.0447491  
H202     H      0.300670000000     0.784940000000     0.992230000000     0.0451937  
H203     H      0.212740000000     0.728390000000     0.010890000000     0.0377571  
H204     H      0.331460000000     0.838030000000     0.883790000000     0.044511   
H205     H      0.289900000000     0.882270000000     0.952560000000     0.0397079  
H206     H      0.284660000000     0.843920000000     0.910310000000     0.0394933  
H207     H      0.256600000000     0.761020000000     0.015580000000     0.0414289  
H208     H      0.213160000000     0.770230000000     0.048920000000     0.0400758  
H209     H      0.355380000000     0.863520000000     0.962750000000     0.037203   
H210     H      0.227120000000     0.554480000000     0.271300000000     0.0419783  
H211     H      0.207290000000     0.654420000000     0.200960000000     0.0360977  
H212     H      0.175290000000     0.562930000000     0.172340000000     0.0409372  
H213     H      0.339230000000     0.546620000000     0.276150000000     0.0381065  
H214     H      0.155540000000     0.663490000000     0.190220000000     0.0393951  
H215     H      0.268090000000     0.495910000000     0.233680000000     0.0362554  
H216     H      0.296680000000     0.582180000000     0.275610000000     0.036212   
H217     H      0.296620000000     0.462610000000     0.270120000000     0.0449942  
H218     H      0.144860000000     0.591310000000     0.133070000000     0.0385229  
H219     H      0.187820000000     0.583550000000     0.244740000000     0.0465251  
H220     H      0.177100000000     0.682380000000     0.161970000000     0.0433206  
H221     H      0.285870000000     0.565960000000     0.197390000000     0.0456345  
H222     H      0.215030000000     0.640720000000     0.164260000000     0.0373349  
H223     H      0.324930000000     0.549010000000     0.312770000000     0.0445876  
H224     H      0.257540000000     0.503430000000     0.271160000000     0.0392296  
H225     H      0.274060000000     0.553580000000     0.295520000000     0.0385575  
H226     H      0.246360000000     0.594430000000     0.170610000000     0.0414099  
H227     H      0.195950000000     0.588290000000     0.147890000000     0.0401963  
H228     H      0.319480000000     0.487000000000     0.246600000000     0.0386515  
H229     H      0.051970000000     0.238310000000     0.754560000000     0.0417609  
H230     H      0.007390000000     0.347610000000     0.798260000000     0.0364484  
H231     H      0.947290000000     0.269380000000     0.785590000000     0.0408781  
H232     H      0.088950000000     0.270320000000     0.653890000000     0.0387356  
H233     H      0.981850000000     0.341060000000     0.844390000000     0.0408253  
H234     H      0.014570000000     0.218320000000     0.690690000000     0.0361115  
H235     H      0.084910000000     0.285000000000     0.704610000000     0.0361699  
H236     H      0.048180000000     0.184310000000     0.658940000000     0.0446827  
H237     H      0.908220000000     0.299760000000     0.814590000000     0.0385794  
H238     H      0.023040000000     0.260870000000     0.795390000000     0.0465575  
H239     H      0.968950000000     0.377700000000     0.827500000000     0.0443818  
H240     H      0.005710000000     0.301230000000     0.694490000000     0.0456553  
H241     H      0.973040000000     0.354450000000     0.778800000000     0.0377212  
H242     H      0.118670000000     0.250600000000     0.673070000000     0.0437283  
H243     H      0.048230000000     0.205170000000     0.708610000000     0.0385047  
H244     H      0.088760000000     0.243580000000     0.716670000000     0.0378481  
H245     H      0.976440000000     0.323370000000     0.735160000000     0.0414022  
H246     H      0.938110000000     0.308850000000     0.771970000000     0.0402498  
H247     H      0.038660000000     0.223140000000     0.643940000000     0.0393247  
H248     H      0.775140000000     0.323370000000     0.003110000000     0.0417281  
H249     H      0.671430000000     0.278350000000     0.038510000000     0.0362945  
H250     H      0.745860000000     0.217420000000     0.054110000000     0.0408582  
H251     H      0.767700000000     0.330340000000     0.892840000000     0.0387736  
H252     H      0.669240000000     0.266470000000     0.090040000000     0.0413433  
H253     H      0.808350000000     0.268580000000     0.955280000000     0.0363971  
H254     H      0.741190000000     0.338450000000     0.938410000000     0.0360741  
H255     H      0.843980000000     0.298960000000     0.923410000000     0.0464793  
H256     H      0.714050000000     0.182980000000     0.088060000000     0.037211   
H257     H      0.748400000000     0.301780000000     0.045700000000     0.0467159  
H258     H      0.640120000000     0.244250000000     0.072260000000     0.0439932  
H259     H      0.733450000000     0.251560000000     0.948100000000     0.0455357  
H260     H      0.669880000000     0.236050000000     0.028630000000     0.0374863  
H261     H      0.776570000000     0.369960000000     0.906660000000     0.0445168  
H262     H      0.814150000000     0.309900000000     0.966990000000     0.0388721  
H263     H      0.774600000000     0.351000000000     0.957150000000     0.0382645  
H264     H      0.706970000000     0.229730000000     0.990800000000     0.0414293  
H265     H      0.712640000000     0.201140000000     0.038270000000     0.0400487  
H266     H      0.812260000000     0.283310000000     0.904110000000     0.039437   
H267     H      0.757370000000     0.501830000000     0.794120000000     0.042336   
H268     H      0.733470000000     0.602130000000     0.729120000000     0.0366276  
H269     H      0.683490000000     0.517980000000     0.707850000000     0.0410057  
H270     H      0.863580000000     0.470510000000     0.769850000000     0.0367046  
H271     H      0.681970000000     0.618920000000     0.729230000000     0.0409912  
H272     H      0.777910000000     0.434700000000     0.753630000000     0.0362422  
H273     H      0.830510000000     0.516750000000     0.775400000000     0.0360977  
H274     H      0.809540000000     0.399400000000     0.785470000000     0.0455817  
H275     H      0.650180000000     0.552180000000     0.675250000000     0.0371541  
H276     H      0.716940000000     0.536770000000     0.776520000000     0.0467139  
H277     H      0.700020000000     0.636320000000     0.697950000000     0.0450455  
H278     H      0.795330000000     0.500360000000     0.707430000000     0.0453247  
H279     H      0.731460000000     0.588750000000     0.691580000000     0.0389173  
H280     H      0.862760000000     0.482460000000     0.807700000000     0.0453983  
H281     H      0.778640000000     0.447930000000     0.791280000000     0.0403065  
H282     H      0.810000000000     0.496940000000     0.804270000000     0.0399037  
H283     H      0.754910000000     0.535380000000     0.689850000000     0.0417489  
H284     H      0.702080000000     0.540040000000     0.679470000000     0.0403931  
H285     H      0.829630000000     0.417660000000     0.755700000000     0.0364219  
H286     H      0.971530000000     0.524740000000     0.929990000000     0.0423898  
H287     H      0.988190000000     0.627300000000     0.997580000000     0.0366183  
H288     H      0.052270000000     0.552000000000     0.004730000000     0.041317   
H289     H      0.876000000000     0.472510000000     0.964250000000     0.0367491  
H290     H      0.036250000000     0.652960000000     0.991890000000     0.0403753  
H291     H      0.967360000000     0.454380000000     0.972530000000     0.0364122  
H292     H      0.900220000000     0.524350000000     0.955620000000     0.0361922  
H293     H      0.939200000000     0.412770000000     0.944020000000     0.0462951  
H294     H      0.085060000000     0.589100000000     0.034890000000     0.0406422  
H295     H      0.007660000000     0.566650000000     0.943840000000     0.0467935  
H296     H      0.020830000000     0.664740000000     0.026500000000     0.0454438  
H297     H      0.945400000000     0.514770000000     0.020370000000     0.0455987  
H298     H      0.997760000000     0.611820000000     0.033290000000     0.0391043  
H299     H      0.871290000000     0.483610000000     0.926470000000     0.0455703  
H300     H      0.960890000000     0.466460000000     0.935090000000     0.0405671  
H301     H      0.920830000000     0.508280000000     0.924980000000     0.0399304  
H302     H      0.981760000000     0.556430000000     0.034260000000     0.0421377  
H303     H      0.035430000000     0.568080000000     0.037160000000     0.0415791  
H304     H      0.919260000000     0.427600000000     0.975400000000     0.0368476  
In1      In     0.872470000000     0.389710000000     0.867430000000     2.40643    
In2      In     0.102910000000     0.684560000000     0.088090000000     2.40061    
In3      In     0.382030000000     0.936620000000     0.866040000000     2.39992    
In4      In     0.626950000000     0.162530000000     0.143850000000     2.41029    
In5      In     0.365600000000     0.449670000000     0.347730000000     2.40317    
In6      In     0.622050000000     0.650670000000     0.630150000000     2.39758    
In7      In     0.881610000000     0.898550000000     0.381040000000     2.40523    
In8      In     0.133900000000     0.171080000000     0.598920000000     2.39764    
N1       N      0.925390000000     0.944710000000     0.447110000000    -0.173108   
N2       N      0.965580000000     0.985440000000     0.477210000000    -0.110564   
N3       N      0.055650000000     0.078800000000     0.502470000000    -0.113607   
N4       N      0.093400000000     0.121840000000     0.532650000000    -0.169498   
N5       N      0.680820000000     0.707340000000     0.585560000000    -0.172066   
N6       N      0.718400000000     0.745820000000     0.550280000000    -0.110438   
N7       N      0.774730000000     0.813510000000     0.456480000000    -0.113343   
N8       N      0.815470000000     0.848170000000     0.421510000000    -0.168003   
N9       N      0.180430000000     0.242710000000     0.558180000000    -0.171275   
N10      N      0.213420000000     0.287620000000     0.524700000000    -0.110549   
N11      N      0.281960000000     0.350460000000     0.436250000000    -0.11296    
N12      N      0.315980000000     0.392700000000     0.401340000000    -0.168043   
N13      N      0.417660000000     0.505780000000     0.400170000000    -0.171897   
N14      N      0.456420000000     0.535600000000     0.440700000000    -0.11053    
N15      N      0.538240000000     0.561720000000     0.533270000000    -0.113349   
N16      N      0.574700000000     0.592420000000     0.575130000000    -0.1692     
N17      N      0.840500000000     0.947220000000     0.315010000000    -0.172475   
N18      N      0.803650000000     0.984750000000     0.278190000000    -0.110444   
N19      N      0.711410000000     0.066480000000     0.234580000000    -0.113328   
N20      N      0.674780000000     0.106310000000     0.199860000000    -0.168886   
N21      N      0.414140000000     0.389730000000     0.295570000000    -0.171989   
N22      N      0.452720000000     0.346840000000     0.266090000000    -0.110542   
N23      N      0.547170000000     0.261250000000     0.235020000000    -0.113522   
N24      N      0.584930000000     0.219330000000     0.203650000000    -0.168464   
N25      N      0.323280000000     0.991120000000     0.819330000000    -0.172535   
N26      N      0.283100000000     0.023740000000     0.782070000000    -0.110414   
N27      N      0.212060000000     0.065340000000     0.685610000000    -0.113389   
N28      N      0.179120000000     0.103360000000     0.645850000000    -0.167272   
N29      N      0.437200000000     0.886550000000     0.811880000000    -0.171354   
N30      N      0.472640000000     0.848210000000     0.774400000000    -0.110463   
N31      N      0.523620000000     0.745940000000     0.706960000000    -0.113189   
N32      N      0.562300000000     0.705290000000     0.675170000000    -0.167575   
N33      N      0.432040000000     0.001180000000     0.912250000000    -0.172075   
N34      N      0.466770000000     0.037480000000     0.951990000000    -0.110522   
N35      N      0.533620000000     0.078790000000     0.051380000000    -0.113197   
N36      N      0.571430000000     0.111420000000     0.090770000000    -0.168755   
N37      N      0.036660000000     0.724720000000     0.136780000000    -0.172272   
N38      N      0.005380000000     0.756300000000     0.182180000000    -0.110487   
N39      N      0.977070000000     0.820720000000     0.289130000000    -0.113522   
N40      N      0.946130000000     0.853520000000     0.333810000000    -0.167418   
N41      N      0.157140000000     0.741190000000     0.038020000000    -0.172434   
N42      N      0.198450000000     0.777500000000     0.005000000000    -0.110414   
N43      N      0.302250000000     0.832140000000     0.952600000000    -0.113372   
N44      N      0.341160000000     0.870970000000     0.919190000000    -0.169447   
N45      N      0.153530000000     0.639020000000     0.149590000000    -0.172416   
N46      N      0.190220000000     0.607600000000     0.190860000000    -0.110484   
N47      N      0.283160000000     0.540970000000     0.250920000000    -0.113132   
N48      N      0.317510000000     0.503960000000     0.290190000000    -0.169774   
N49      N      0.938000000000     0.337750000000     0.827830000000    -0.171766   
N50      N      0.980500000000     0.305550000000     0.792840000000    -0.110503   
N51      N      0.047020000000     0.255330000000     0.696730000000    -0.113043   
N52      N      0.083250000000     0.219700000000     0.658220000000    -0.169114   
N53      N      0.677220000000     0.215990000000     0.087790000000    -0.172034   
N54      N      0.711110000000     0.251910000000     0.047230000000    -0.110461   
N55      N      0.772010000000     0.300390000000     0.946880000000    -0.113327   
N56      N      0.811310000000     0.334130000000     0.909710000000    -0.168427   
N57      N      0.669240000000     0.597370000000     0.689100000000    -0.172887   
N58      N      0.708500000000     0.558880000000     0.722550000000    -0.110416   
N59      N      0.803290000000     0.477490000000     0.761290000000    -0.113585   
N60      N      0.839610000000     0.438200000000     0.796900000000    -0.169004   
N61      N      0.057580000000     0.631090000000     0.028170000000    -0.170456   
N62      N      0.019600000000     0.588670000000     0.997220000000    -0.110549   
N63      N      0.934710000000     0.491360000000     0.967180000000    -0.113569   
N64      N      0.902320000000     0.444850000000     0.935190000000    -0.168549   
O1       O      0.869880000000     0.434070000000     0.837500000000    -0.50226    
O2       O      0.842650000000     0.393590000000     0.827140000000    -0.504971   
O3       O      0.919960000000     0.383980000000     0.850150000000    -0.500504   
O4       O      0.904060000000     0.399750000000     0.905460000000    -0.50256    
O5       O      0.825390000000     0.380070000000     0.884430000000    -0.502256   
O6       O      0.870130000000     0.434360000000     0.897010000000    -0.501371   
O7       O      0.889980000000     0.344660000000     0.844370000000    -0.499749   
O8       O      0.858760000000     0.345000000000     0.893420000000    -0.500999   
O9       O      0.066380000000     0.681920000000     0.122660000000    -0.509688   
O10      O      0.073020000000     0.727000000000     0.101140000000    -0.496751   
O11      O      0.120330000000     0.639170000000     0.111110000000    -0.493752   
O12      O      0.096490000000     0.639370000000     0.060240000000    -0.488739   
O13      O      0.129520000000     0.730980000000     0.079600000000    -0.493477   
O14      O      0.064330000000     0.677040000000     0.056300000000    -0.502752   
O15      O      0.137740000000     0.684530000000     0.124650000000    -0.508901   
O16      O      0.131470000000     0.693920000000     0.047510000000    -0.5078     
O17      O      0.334810000000     0.949700000000     0.851420000000    -0.507205   
O18      O      0.370700000000     0.976660000000     0.833470000000    -0.501174   
O19      O      0.426480000000     0.957170000000     0.881610000000    -0.499548   
O20      O      0.358260000000     0.888400000000     0.874250000000    -0.505507   
O21      O      0.397240000000     0.920390000000     0.820620000000    -0.500445   
O22      O      0.364710000000     0.919710000000     0.910560000000    -0.505924   
O23      O      0.387140000000     0.979910000000     0.897000000000    -0.498348   
O24      O      0.420330000000     0.901650000000     0.857580000000    -0.495388   
O25      O      0.664170000000     0.154830000000     0.177130000000    -0.504132   
O26      O      0.638180000000     0.113930000000     0.165180000000    -0.50405    
O27      O      0.618320000000     0.211040000000     0.166140000000    -0.500876   
O28      O      0.632990000000     0.203440000000     0.110770000000    -0.502957   
O29      O      0.617830000000     0.124100000000     0.109000000000    -0.505318   
O30      O      0.670220000000     0.173170000000     0.119550000000    -0.502687   
O31      O      0.593030000000     0.170480000000     0.180400000000    -0.501958   
O32      O      0.581060000000     0.151270000000     0.124890000000    -0.50369    
O33      O      0.321070000000     0.432060000000     0.365790000000    -0.504231   
O34      O      0.360680000000     0.412830000000     0.384560000000    -0.500629   
O35      O      0.401860000000     0.440200000000     0.313690000000    -0.495057   
O36      O      0.347500000000     0.498160000000     0.330840000000    -0.50752    
O37      O      0.372870000000     0.482180000000     0.387630000000    -0.502135   
O38      O      0.334150000000     0.455330000000     0.308800000000    -0.506803   
O39      O      0.378580000000     0.399610000000     0.330800000000    -0.502047   
O40      O      0.410070000000     0.472440000000     0.360310000000    -0.499579   
O41      O      0.638200000000     0.699790000000     0.612970000000    -0.500816   
O42      O      0.663370000000     0.657990000000     0.601910000000    -0.499269   
O43      O      0.584290000000     0.687730000000     0.632330000000    -0.493462   
O44      O      0.580810000000     0.621130000000     0.617990000000    -0.502925   
O45      O      0.658140000000     0.644980000000     0.664960000000    -0.502398   
O46      O      0.616060000000     0.622740000000     0.587180000000    -0.502135   
O47      O      0.601460000000     0.669350000000     0.672460000000    -0.503575   
O48      O      0.633050000000     0.603210000000     0.653650000000    -0.506698   
O49      O      0.888330000000     0.941190000000     0.412330000000    -0.499312   
O50      O      0.917730000000     0.901240000000     0.416250000000    -0.511617   
O51      O      0.872900000000     0.944080000000     0.354060000000    -0.497549   
O52      O      0.919920000000     0.898750000000     0.348370000000    -0.505739   
O53      O      0.839200000000     0.895600000000     0.408500000000    -0.507488   
O54      O      0.907580000000     0.853520000000     0.367160000000    -0.48858    
O55      O      0.849060000000     0.901390000000     0.342740000000    -0.510275   
O56      O      0.858820000000     0.851350000000     0.394640000000    -0.492695   
O57      O      0.096500000000     0.163880000000     0.565710000000    -0.497721   
O58      O      0.131470000000     0.129390000000     0.565820000000    -0.509488   
O59      O      0.176700000000     0.199270000000     0.589810000000    -0.487711   
O60      O      0.127050000000     0.210690000000     0.633260000000    -0.510007   
O61      O      0.176340000000     0.144390000000     0.611700000000    -0.489829   
O62      O      0.091330000000     0.178130000000     0.625450000000    -0.499046   
O63      O      0.137790000000     0.212980000000     0.566510000000    -0.504177   
O64      O      0.136260000000     0.130860000000     0.633260000000    -0.503636   
S1       S      0.943460000000     0.915320000000     0.492440000000    -0.0156189  
S2       S      0.734360000000     0.692610000000     0.596490000000    -0.0112675  
S3       S      0.214040000000     0.274370000000     0.592230000000    -0.00878903 
S4       S      0.394270000000     0.558250000000     0.417380000000    -0.00991261 
S5       S      0.836160000000     0.918800000000     0.266080000000    -0.0140778  
S6       S      0.420520000000     0.409390000000     0.243460000000    -0.0121323  
S7       S      0.335060000000     0.051130000000     0.820290000000    -0.00918968 
S8       S      0.491100000000     0.892540000000     0.826970000000    -0.00710442 
S9       S      0.416460000000     0.060030000000     0.908860000000    -0.0105284  
S10      S      0.987430000000     0.696020000000     0.144200000000    -0.0131305  
S11      S      0.140060000000     0.799650000000     0.036530000000    -0.00840948 
S12      S      0.122950000000     0.596840000000     0.176340000000    -0.00843212 
S13      S      0.942060000000     0.279500000000     0.844850000000    -0.00849836 
S14      S      0.727340000000     0.228530000000     0.110400000000    -0.00800325 
S15      S      0.638780000000     0.560680000000     0.721860000000    -0.0104296  
S16      S      0.087300000000     0.603570000000     0.988190000000    -0.00947392 


