data_structure

_audit_creation_method RASPA-1.0
_audit_creation_date 2023-5-25
_audit_author_name 'Poobodin Mano'

_cell_length_a    44.5369
_cell_length_b    45.7123
_cell_length_c    41.8772
_cell_angle_alpha 90
_cell_angle_beta  90
_cell_angle_gamma 90
_cell_volume      85257.1

_symmetry_cell_setting          triclinic
_symmetry_space_group_name_Hall 'P 1'
_symmetry_space_group_name_H-M  'P 1'
_symmetry_Int_Tables_number     1

_symmetry_equiv_pos_as_xyz 'x,y,z'

loop_
_atom_site_label
_atom_site_type_symbol
_atom_site_fract_x
_atom_site_fract_y
_atom_site_fract_z
_atom_site_charge
C1       C      0.896540000000     0.394060000000     0.933500000000     0.403577   
C2       C      0.849410000000     0.304750000000     0.930210000000     0.40236    
C3       C      0.834600000000     0.381040000000     0.862460000000     0.40842    
C4       C      0.916270000000     0.320540000000     0.864190000000     0.406517   
C5       C      0.080780000000     0.557960000000     0.131100000000     0.404133   
C6       C      0.149870000000     0.566960000000     0.201870000000     0.407702   
C7       C      0.147020000000     0.636640000000     0.132400000000     0.4028     
C8       C      0.069640000000     0.631680000000     0.193040000000     0.408019   
C9       C      0.402280000000     0.812590000000     0.881860000000     0.404732   
C10      C      0.338010000000     0.812940000000     0.951340000000     0.406159   
C11      C      0.404100000000     0.890980000000     0.947800000000     0.406066   
C12      C      0.336450000000     0.889330000000     0.882040000000     0.405598   
C13      C      0.651360000000     0.154740000000     0.125640000000     0.404918   
C14      C      0.576030000000     0.153860000000     0.194220000000     0.411377   
C15      C      0.582400000000     0.082670000000     0.125620000000     0.407472   
C16      C      0.649980000000     0.086200000000     0.199110000000     0.406866   
C17      C      0.360930000000     0.417680000000     0.384200000000     0.404393   
C18      C      0.347740000000     0.352520000000     0.461990000000     0.413453   
C19      C      0.426030000000     0.345980000000     0.395870000000     0.411407   
C20      C      0.423240000000     0.415180000000     0.466490000000     0.403923   
C21      C      0.678610000000     0.602190000000     0.709770000000     0.412359   
C22      C      0.689080000000     0.666880000000     0.628670000000     0.410501   
C23      C      0.613180000000     0.603940000000     0.632290000000     0.404146   
C24      C      0.619850000000     0.679580000000     0.698370000000     0.406574   
C25      C      0.828430000000     0.850420000000     0.416630000000     0.407569   
C26      C      0.859390000000     0.910460000000     0.343380000000     0.405278   
C27      C      0.904920000000     0.905150000000     0.441070000000     0.402713   
C28      C      0.922110000000     0.841930000000     0.369530000000     0.407796   
C29      C      0.105260000000     0.135740000000     0.694390000000     0.404916   
C30      C      0.163330000000     0.060810000000     0.680020000000     0.409018   
C31      C      0.105020000000     0.079920000000     0.603140000000     0.402784   
C32      C      0.172880000000     0.144740000000     0.618610000000     0.403606   
C33      C      0.933740000000     0.969210000000     0.482100000000    -0.0302746  
C34      C      0.072300000000     0.018430000000     0.560350000000    -0.0307971  
C35      C      0.063050000000     0.081450000000     0.564590000000    -0.00493294 
C36      C      0.099100000000     0.038800000000     0.565420000000    -0.00533323 
C37      C      0.020950000000     0.008200000000     0.500260000000    -0.0531431  
C38      C      0.983350000000     0.981520000000     0.545150000000    -0.0525654  
C39      C      0.024900000000     0.014170000000     0.532770000000     0.0623841  
C40      C      0.037470000000     0.059630000000     0.559400000000    -0.0308673  
C41      C      0.979370000000     0.975600000000     0.512620000000     0.0631328  
C42      C      0.968610000000     0.928500000000     0.489040000000    -0.0345177  
C43      C      0.998460000000     0.989020000000     0.490160000000    -0.0556652  
C44      C      0.943620000000     0.905950000000     0.483350000000     0.016832   
C45      C      0.907450000000     0.948320000000     0.476480000000    -0.00444431 
C46      C      0.005960000000     0.000580000000     0.555260000000    -0.0552336  
C47      C      0.932590000000     0.894400000000     0.514010000000     0.0540539  
C48      C      0.725400000000     0.730720000000     0.592700000000    -0.0306574  
C49      C      0.787430000000     0.787260000000     0.442250000000    -0.0309763  
C50      C      0.787770000000     0.849600000000     0.456840000000    -0.00542191 
C51      C      0.791590000000     0.809850000000     0.415630000000    -0.00509511 
C52      C      0.732150000000     0.772950000000     0.499560000000    -0.0521777  
C53      C      0.776900000000     0.743300000000     0.533460000000    -0.0519795  
C54      C      0.762390000000     0.778500000000     0.492710000000     0.0627907  
C55      C      0.783990000000     0.826050000000     0.482470000000    -0.0307783  
C56      C      0.746670000000     0.737640000000     0.540210000000     0.0639391  
C57      C      0.721300000000     0.692150000000     0.552830000000    -0.0343912  
C58      C      0.724240000000     0.752780000000     0.523190000000    -0.0552607  
C59      C      0.718280000000     0.668420000000     0.578590000000     0.0166256  
C60      C      0.723060000000     0.708760000000     0.620120000000    -0.00385895 
C61      C      0.784800000000     0.763630000000     0.510030000000    -0.0544116  
C62      C      0.747130000000     0.653240000000     0.583030000000     0.0574084  
C63      C      0.319950000000     0.302050000000     0.523630000000    -0.0307255  
C64      C      0.196770000000     0.200990000000     0.559950000000    -0.0308536  
C65      C      0.221990000000     0.169020000000     0.614020000000    -0.00485724 
C66      C      0.183650000000     0.171210000000     0.568890000000    -0.00517088 
C67      C      0.266540000000     0.222940000000     0.532480000000    -0.052626   
C68      C      0.250420000000     0.279770000000     0.550300000000    -0.0525769  
C69      C      0.243710000000     0.227130000000     0.555010000000     0.0622214  
C70      C      0.233350000000     0.198910000000     0.602790000000    -0.03095    
C71      C      0.273220000000     0.275580000000     0.527710000000     0.0632884  
C72      C      0.284330000000     0.303120000000     0.479620000000    -0.0346848  
C73      C      0.281270000000     0.246900000000     0.518920000000    -0.055783   
C74      C      0.296450000000     0.332590000000     0.467520000000     0.017454   
C75      C      0.333330000000     0.331530000000     0.513950000000    -0.00343078 
C76      C      0.235740000000     0.255800000000     0.563930000000    -0.0549676  
C77      C      0.276350000000     0.356510000000     0.477380000000     0.0533489  
C78      C      0.542740000000     0.570090000000     0.602650000000    -0.0307443  
C79      C      0.491250000000     0.449860000000     0.499980000000    -0.0305415  
C80      C      0.426470000000     0.451010000000     0.510260000000    -0.00485153 
C81      C      0.472500000000     0.422910000000     0.491680000000    -0.00540281 
C82      C      0.506790000000     0.486370000000     0.570390000000    -0.0525405  
C83      C      0.524680000000     0.533710000000     0.532620000000    -0.0523525  
C84      C      0.496450000000     0.488530000000     0.538900000000     0.0625037  
C85      C      0.447270000000     0.476740000000     0.517780000000    -0.0307313  
C86      C      0.535210000000     0.531430000000     0.564030000000     0.0634142  
C87      C      0.585140000000     0.541400000000     0.584150000000    -0.0347616  
C88      C      0.526000000000     0.507610000000     0.582970000000    -0.0556723  
C89      C      0.607390000000     0.566330000000     0.590700000000     0.0171574  
C90      C      0.562640000000     0.596500000000     0.610050000000    -0.00401017 
C91      C      0.505430000000     0.512500000000     0.520060000000    -0.054879   
C92      C      0.615550000000     0.580970000000     0.560600000000     0.0585804  
C93      C      0.714910000000     0.065570000000     0.248350000000    -0.0303817  
C94      C      0.803080000000     0.934750000000     0.288590000000    -0.0308804  
C95      C      0.857230000000     0.959010000000     0.317330000000    -0.00548749 
C96      C      0.831100000000     0.915810000000     0.292850000000    -0.00526235 
C97      C      0.785870000000     0.998930000000     0.248060000000    -0.0528178  
C98      C      0.736560000000     0.003360000000     0.289140000000    -0.0525049  
C99      C      0.786150000000     0.983890000000     0.277190000000     0.0622284  
C100     C      0.828500000000     0.976890000000     0.312600000000    -0.030739   
C101     C      0.736030000000     0.017920000000     0.259730000000     0.0634139  
C102     C      0.695330000000     0.022260000000     0.221740000000    -0.0342029  
C103     C      0.761110000000     0.015930000000     0.239360000000    -0.0558048  
C104     C      0.664630000000     0.036640000000     0.216320000000     0.0164161  
C105     C      0.685070000000     0.081800000000     0.244460000000    -0.00429641 
C106     C      0.761420000000     0.986580000000     0.297960000000    -0.0547112  
C107     C      0.642880000000     0.026060000000     0.240140000000     0.0571816  
C108     C      0.470720000000     0.316790000000     0.329110000000    -0.0309016  
C109     C      0.533500000000     0.181020000000     0.263440000000    -0.0310047  
C110     C      0.546430000000     0.199320000000     0.198140000000    -0.00466243 
C111     C      0.538890000000     0.157950000000     0.237630000000    -0.0045431  
C112     C      0.480280000000     0.236450000000     0.273460000000    -0.0526817  
C113     C      0.519970000000     0.260200000000     0.318240000000    -0.0520695  
C114     C      0.510570000000     0.228250000000     0.272860000000     0.0626399  
C115     C      0.540870000000     0.220760000000     0.225580000000    -0.0310216  
C116     C      0.489610000000     0.268160000000     0.319070000000     0.0633661  
C117     C      0.455880000000     0.276580000000     0.363680000000    -0.034752   
C118     C      0.469810000000     0.256350000000     0.296230000000    -0.0555837  
C119     C      0.449710000000     0.297300000000     0.391810000000     0.0173351  
C120     C      0.465800000000     0.339270000000     0.355640000000    -0.003215   
C121     C      0.530490000000     0.240530000000     0.295280000000    -0.0547598  
C122     C      0.474810000000     0.296320000000     0.414670000000     0.0560547  
C123     C      0.269260000000     0.926470000000     0.849440000000    -0.0306898  
C124     C      0.225010000000     0.016930000000     0.712140000000    -0.0311322  
C125     C      0.160060000000     0.020930000000     0.719640000000    -0.00481118 
C126     C      0.205450000000     0.025880000000     0.683770000000    -0.00461511 
C127     C      0.231410000000     0.954720000000     0.758390000000    -0.0527408  
C128     C      0.259560000000     0.989690000000     0.804290000000    -0.0526661  
C129     C      0.226790000000     0.985030000000     0.758090000000     0.0620921  
C130     C      0.181280000000     0.012140000000     0.746730000000    -0.0310898  
C131     C      0.264340000000     0.959410000000     0.804460000000     0.0632267  
C132     C      0.311220000000     0.933960000000     0.813320000000    -0.0345002  
C133     C      0.250020000000     0.941920000000     0.781330000000    -0.0559327  
C134     C      0.334260000000     0.926170000000     0.839210000000     0.017331   
C135     C      0.290120000000     0.918410000000     0.877110000000    -0.0039215  
C136     C      0.240960000000     0.002480000000     0.781350000000    -0.0549926  
C137     C      0.347990000000     0.952970000000     0.852150000000     0.053658   
C138     C      0.580420000000     0.710590000000     0.766320000000    -0.0303776  
C139     C      0.439740000000     0.783570000000     0.811170000000    -0.030757   
C140     C      0.441310000000     0.774250000000     0.880040000000    -0.00524469 
C141     C      0.411000000000     0.786730000000     0.830890000000    -0.00504693 
C142     C      0.488570000000     0.726540000000     0.795230000000    -0.052759   
C143     C      0.531900000000     0.768470000000     0.779660000000    -0.0523682  
C144     C      0.485380000000     0.755210000000     0.806470000000     0.0625228  
C145     C      0.468980000000     0.771510000000     0.858630000000    -0.0305178  
C146     C      0.535250000000     0.739720000000     0.768680000000     0.0632255  
C147     C      0.553690000000     0.723180000000     0.717340000000    -0.0345897  
C148     C      0.513230000000     0.718770000000     0.776440000000    -0.0556065  
C149     C      0.582260000000     0.719400000000     0.697150000000     0.0173164  
C150     C      0.609960000000     0.706780000000     0.748240000000    -0.00422016 
C151     C      0.507180000000     0.776270000000     0.798370000000    -0.0549885  
C152     C      0.595880000000     0.748080000000     0.690380000000     0.0547885  
C153     C      0.559080000000     0.032620000000     0.059790000000    -0.0309015  
C154     C      0.429840000000     0.942800000000     0.010530000000    -0.0313635  
C155     C      0.450140000000     0.920580000000     0.948870000000    -0.00471682 
C156     C      0.406680000000     0.931170000000     0.986720000000    -0.0040963  
C157     C      0.479620000000     0.001090000000     0.009210000000    -0.0529669  
C158     C      0.510170000000     0.973300000000     0.059040000000    -0.0522744  
C159     C      0.475660000000     0.971010000000     0.014080000000     0.0624247  
C160     C      0.471200000000     0.932620000000     0.974540000000    -0.030613   
C161     C      0.513990000000     0.003400000000     0.054290000000     0.0633298  
C162     C      0.516480000000     0.041380000000     0.094470000000    -0.0346897  
C163     C      0.498610000000     0.017240000000     0.029090000000    -0.0554723  
C164     C      0.536370000000     0.053270000000     0.121400000000     0.0173548  
C165     C      0.581340000000     0.044160000000     0.084650000000    -0.00322682 
C166     C      0.491210000000     0.957150000000     0.039150000000    -0.0548848  
C167     C      0.539960000000     0.030980000000     0.146520000000     0.059154   
C168     C      0.032570000000     0.699790000000     0.215720000000    -0.0304733  
C169     C      0.957660000000     0.772590000000     0.350180000000    -0.0311208  
C170     C      0.963060000000     0.833620000000     0.330750000000    -0.00504439 
C171     C      0.952710000000     0.797060000000     0.374520000000    -0.00454874 
C172     C      0.017790000000     0.751050000000     0.302180000000    -0.0529599  
C173     C      0.975400000000     0.720880000000     0.265530000000    -0.0523382  
C174     C      0.987440000000     0.758810000000     0.304230000000     0.0624494  
C175     C      0.967550000000     0.807950000000     0.307770000000    -0.0309613  
C176     C      0.005720000000     0.712950000000     0.263680000000     0.0631167  
C177     C      0.029040000000     0.665140000000     0.259780000000    -0.0345257  
C178     C      0.026980000000     0.728410000000     0.282010000000    -0.0556141  
C179     C      0.033750000000     0.638950000000     0.237350000000     0.0169805  
C180     C      0.036820000000     0.675150000000     0.191450000000    -0.00442644 
C181     C      0.966250000000     0.743680000000     0.285500000000    -0.0550038  
C182     C      0.004780000000     0.624920000000     0.230120000000     0.0561719  
C183     C      0.274760000000     0.765330000000     0.975980000000    -0.0304145  
C184     C      0.212570000000     0.683010000000     0.111510000000    -0.0310745  
C185     C      0.154430000000     0.666970000000     0.084530000000    -0.00492257 
C186     C      0.187130000000     0.673640000000     0.133850000000    -0.00498104 
C187     C      0.221520000000     0.741200000000     0.058840000000    -0.052811   
C188     C      0.267400000000     0.708820000000     0.030040000000    -0.0527113  
C189     C      0.222810000000     0.710890000000     0.063570000000     0.0620322  
C190     C      0.181400000000     0.676590000000     0.064510000000    -0.0309162  
C191     C      0.266040000000     0.739110000000     0.025220000000     0.063064   
C192     C      0.306540000000     0.774500000000     0.021980000000    -0.0345204  
C193     C      0.242890000000     0.755280000000     0.039840000000    -0.0558257  
C194     C      0.332970000000     0.784290000000     0.000940000000     0.0165971  
C195     C      0.299490000000     0.774380000000     0.952670000000    -0.00382808 
C196     C      0.246000000000     0.694730000000     0.049020000000    -0.055032   
C197     C      0.355370000000     0.760680000000     0.998600000000     0.0558524  
C198     C      0.204320000000     0.549690000000     0.266170000000    -0.0307294  
C199     C      0.311280000000     0.436600000000     0.317530000000    -0.0310897  
C200     C      0.342330000000     0.466690000000     0.369290000000    -0.00518126 
C201     C      0.341410000000     0.424970000000     0.329610000000    -0.00455829 
C202     C      0.287970000000     0.501890000000     0.282460000000    -0.0527409  
C203     C      0.229700000000     0.485660000000     0.299930000000    -0.0522014  
C204     C      0.283780000000     0.481160000000     0.306690000000     0.0622879  
C205     C      0.312090000000     0.476710000000     0.355810000000    -0.030893   
C206     C      0.233910000000     0.506170000000     0.275490000000     0.0633101  
C207     C      0.207350000000     0.512150000000     0.225330000000    -0.0345495  
C208     C      0.263310000000     0.514420000000     0.267000000000    -0.0557457  
C209     C      0.176750000000     0.520650000000     0.211200000000     0.0171447  
C210     C      0.173550000000     0.559960000000     0.254410000000    -0.0036118  
C211     C      0.254350000000     0.473280000000     0.315540000000    -0.0548062  
C212     C      0.153640000000     0.499570000000     0.221370000000     0.0550532  
C213     C      0.949210000000     0.266710000000     0.808350000000    -0.030748   
C214     C      0.086130000000     0.193500000000     0.752410000000    -0.0309194  
C215     C      0.056620000000     0.144520000000     0.720640000000    -0.00500396 
C216     C      0.104530000000     0.166640000000     0.742720000000    -0.00552392 
C217     C      0.022120000000     0.203140000000     0.801590000000    -0.0528194  
C218     C      0.015740000000     0.257150000000     0.770990000000    -0.0525449  
C219     C      0.037360000000     0.208290000000     0.772880000000     0.0620668  
C220     C      0.040300000000     0.172440000000     0.730720000000    -0.0308421  
C221     C      0.000560000000     0.252020000000     0.799740000000     0.063215   
C222     C      0.987860000000     0.282690000000     0.845310000000    -0.0344979  
C223     C      0.003670000000     0.224670000000     0.814880000000    -0.0559093  
C224     C      0.969870000000     0.309990000000     0.854910000000     0.0168299  
C225     C      0.929590000000     0.293340000000     0.815550000000    -0.00386625 
C226     C      0.033810000000     0.235460000000     0.757460000000    -0.0548391  
C227     C      0.982250000000     0.336050000000     0.839010000000     0.0569832  
C228     C      0.686740000000     0.187660000000     0.054150000000    -0.030643   
C229     C      0.822090000000     0.266360000000     0.000600000000    -0.0315035  
C230     C      0.812790000000     0.264170000000     0.931750000000    -0.00526228 
C231     C      0.848210000000     0.272680000000     0.977820000000    -0.00498961 
C232     C      0.775050000000     0.206530000000     0.014100000000    -0.0527496  
C233     C      0.734910000000     0.245920000000     0.042190000000    -0.0522553  
C234     C      0.777590000000     0.236450000000     0.007380000000     0.0619458  
C235     C      0.787800000000     0.258380000000     0.955980000000    -0.0305925  
C236     C      0.732370000000     0.216010000000     0.048900000000     0.0632316  
C237     C      0.720840000000     0.192140000000     0.099130000000    -0.0345382  
C238     C      0.752640000000     0.196290000000     0.034650000000    -0.0557886  
C239     C      0.695500000000     0.187210000000     0.123400000000     0.0167445  
C240     C      0.659720000000     0.182660000000     0.076080000000    -0.00421886 
C241     C      0.757240000000     0.256150000000     0.021570000000    -0.0546779  
C242     C      0.686210000000     0.215300000000     0.137510000000     0.055992   
C243     C      0.809860000000     0.438780000000     0.807910000000    -0.030755   
C244     C      0.688720000000     0.539830000000     0.764140000000    -0.0312223  
C245     C      0.725900000000     0.583910000000     0.732920000000    -0.00475417 
C246     C      0.675720000000     0.570150000000     0.757130000000    -0.00441462 
C247     C      0.751560000000     0.515450000000     0.808430000000    -0.0521373  
C248     C      0.745310000000     0.463050000000     0.774630000000    -0.0522964  
C249     C      0.734430000000     0.514940000000     0.780390000000     0.062532   
C250     C      0.736800000000     0.552960000000     0.740460000000    -0.0308856  
C251     C      0.762340000000     0.463530000000     0.802740000000     0.0636905  
C252     C      0.769780000000     0.428580000000     0.845840000000    -0.0349645  
C253     C      0.765630000000     0.490070000000     0.819470000000    -0.0554222  
C254     C      0.782640000000     0.398170000000     0.853480000000     0.0172649  
C255     C      0.824000000000     0.408720000000     0.813230000000    -0.00389787 
C256     C      0.731630000000     0.488530000000     0.763330000000    -0.0546134  
C257     C      0.765600000000     0.375450000000     0.836390000000     0.0560397  
C258     C      0.955080000000     0.443130000000     0.962610000000    -0.0301548  
C259     C      0.015620000000     0.514050000000     0.105910000000    -0.0305303  
C260     C      0.076150000000     0.526870000000     0.083230000000    -0.00499756 
C261     C      0.040440000000     0.521050000000     0.129970000000    -0.00571806 
C262     C      0.005570000000     0.458690000000     0.049660000000    -0.0525532  
C263     C      0.963060000000     0.495180000000     0.020850000000    -0.0520473  
C264     C      0.005950000000     0.488730000000     0.056180000000     0.0626256  
C265     C      0.049840000000     0.519680000000     0.061070000000    -0.0308093  
C266     C      0.962690000000     0.465130000000     0.014310000000     0.0630543  
C267     C      0.920980000000     0.431680000000     0.006360000000    -0.0350437  
C268     C      0.984220000000     0.446910000000     0.028850000000    -0.0551108  
C269     C      0.895610000000     0.423450000000     0.983110000000     0.0171932  
C270     C      0.931090000000     0.436070000000     0.937690000000    -0.00456045 
C271     C      0.984510000000     0.506990000000     0.041540000000    -0.0547131  
C272     C      0.874040000000     0.447720000000     0.980310000000     0.0537491  
H1       H      0.008720000000     0.004620000000     0.580550000000     0.0431313  
H2       H      0.924920000000     0.989540000000     0.493340000000     0.0378008  
H3       H      0.985970000000     0.918940000000     0.505130000000     0.0415297  
H4       H      0.069920000000     0.090360000000     0.541000000000     0.0393561  
H5       H      0.895140000000     0.945490000000     0.499370000000     0.0440464  
H6       H      0.080130000000     0.998860000000     0.546880000000     0.0369152  
H7       H      0.019560000000     0.070550000000     0.545200000000     0.0372167  
H8       H      0.115930000000     0.027510000000     0.580670000000     0.0456895  
H9       H      0.953520000000     0.887300000000     0.469940000000     0.0443995  
H10      H      0.968970000000     0.971190000000     0.562690000000     0.0496825  
H11      H      0.891720000000     0.958450000000     0.459080000000     0.0481056  
H12      H      0.035480000000     0.018350000000     0.482730000000     0.0462617  
H13      H      0.943790000000     0.975100000000     0.458610000000     0.0395522  
H14      H      0.054630000000     0.099970000000     0.579300000000     0.0477564  
H15      H      0.063740000000     0.011030000000     0.584000000000     0.0399536  
H16      H      0.027890000000     0.053450000000     0.583020000000     0.0401761  
H17      H      0.996050000000     0.984620000000     0.464900000000     0.0423867  
H18      H      0.979680000000     0.933350000000     0.465790000000     0.0397915  
H19      H      0.109710000000     0.043190000000     0.541870000000     0.0386707  
H20      H      0.808340000000     0.767800000000     0.505530000000     0.0444002  
H21      H      0.739250000000     0.749560000000     0.600890000000     0.039191   
H22      H      0.731810000000     0.682600000000     0.531040000000     0.043584   
H23      H      0.765100000000     0.856990000000     0.449160000000     0.0383935  
H24      H      0.746080000000     0.703670000000     0.628790000000     0.0448552  
H25      H      0.775630000000     0.767890000000     0.432170000000     0.0383228  
H26      H      0.769730000000     0.835090000000     0.501950000000     0.0383404  
H27      H      0.806320000000     0.800510000000     0.396790000000     0.0468575  
H28      H      0.701820000000     0.651960000000     0.569890000000     0.0484066  
H29      H      0.794360000000     0.731980000000     0.546550000000     0.0507042  
H30      H      0.710580000000     0.719120000000     0.640150000000     0.0478939  
H31      H      0.714690000000     0.784420000000     0.486640000000     0.0474342  
H32      H      0.702560000000     0.739000000000     0.586700000000     0.0412631  
H33      H      0.799670000000     0.868690000000     0.467330000000     0.047037   
H34      H      0.809970000000     0.780150000000     0.450740000000     0.0412844  
H35      H      0.806410000000     0.820600000000     0.492630000000     0.0418959  
H36      H      0.700720000000     0.749070000000     0.528200000000     0.0440316  
H37      H      0.698380000000     0.699690000000     0.546090000000     0.0415629  
H38      H      0.769290000000     0.814390000000     0.404770000000     0.0385609  
H39      H      0.218180000000     0.259620000000     0.581300000000     0.0428928  
H40      H      0.322300000000     0.299620000000     0.549970000000     0.0379406  
H41      H      0.260160000000     0.300980000000     0.473100000000     0.0418029  
H42      H      0.237480000000     0.151840000000     0.604960000000     0.0400036  
H43      H      0.323150000000     0.348890000000     0.529070000000     0.0429135  
H44      H      0.193700000000     0.204280000000     0.533810000000     0.0371792  
H45      H      0.257660000000     0.200600000000     0.608680000000     0.0372139  
H46      H      0.158920000000     0.171940000000     0.565290000000     0.0451156  
H47      H      0.296430000000     0.331970000000     0.440970000000     0.0431123  
H48      H      0.244080000000     0.301710000000     0.557370000000     0.0496376  
H49      H      0.357830000000     0.331170000000     0.519040000000     0.0467187  
H50      H      0.272900000000     0.201010000000     0.525420000000     0.0466846  
H51      H      0.332920000000     0.284170000000     0.511970000000     0.0403153  
H52      H      0.222760000000     0.168330000000     0.640560000000     0.0454144  
H53      H      0.184150000000     0.218490000000     0.572690000000     0.0390513  
H54      H      0.221230000000     0.216460000000     0.616000000000     0.0390296  
H55      H      0.298900000000     0.243040000000     0.501650000000     0.0428937  
H56      H      0.296660000000     0.285190000000     0.467270000000     0.0400461  
H57      H      0.192850000000     0.154440000000     0.552330000000     0.038857   
H58      H      0.497750000000     0.514690000000     0.495660000000     0.0433122  
H59      H      0.519910000000     0.578180000000     0.596370000000     0.0374503  
H60      H      0.593790000000     0.527440000000     0.564350000000     0.0423884  
H61      H      0.421650000000     0.439050000000     0.532810000000     0.0406206  
H62      H      0.560420000000     0.612610000000     0.590300000000     0.0438702  
H63      H      0.514180000000     0.442460000000     0.506830000000     0.0384876  
H64      H      0.437400000000     0.489380000000     0.537930000000     0.0373708  
H65      H      0.482070000000     0.412550000000     0.469910000000     0.0480866  
H66      H      0.628230000000     0.556490000000     0.600650000000     0.0446037  
H67      H      0.531590000000     0.551930000000     0.517800000000     0.0500156  
H68      H      0.554240000000     0.607150000000     0.632200000000     0.0451399  
H69      H      0.500050000000     0.468040000000     0.585140000000     0.0469834  
H70      H      0.540780000000     0.556190000000     0.624400000000     0.0383555  
H71      H      0.404820000000     0.459710000000     0.501040000000     0.0474424  
H72      H      0.493250000000     0.464020000000     0.478430000000     0.0401332  
H73      H      0.448510000000     0.491400000000     0.496570000000     0.0397932  
H74      H      0.533800000000     0.505370000000     0.607320000000     0.0425958  
H75      H      0.583620000000     0.527340000000     0.605820000000     0.039599   
H76      H      0.474410000000     0.406870000000     0.511530000000     0.0412675  
H77      H      0.761170000000     0.975420000000     0.320750000000     0.0432399  
H78      H      0.726120000000     0.073730000000     0.270380000000     0.0379039  
H79      H      0.692500000000     0.998090000000     0.223640000000     0.0423986  
H80      H      0.872250000000     0.962860000000     0.296540000000     0.0385272  
H81      H      0.672280000000     0.080120000000     0.267190000000     0.0446651  
H82      H      0.790830000000     0.927090000000     0.266980000000     0.0375376  
H83      H      0.834860000000     0.000160000000     0.308640000000     0.0369693  
H84      H      0.824190000000     0.892770000000     0.297150000000     0.0459532  
H85      H      0.656390000000     0.029630000000     0.192450000000     0.0463593  
H86      H      0.717480000000     0.004820000000     0.305090000000     0.0501469  
H87      H      0.689820000000     0.105360000000     0.240150000000     0.0472732  
H88      H      0.804810000000     0.997220000000     0.231950000000     0.046074   
H89      H      0.729690000000     0.070590000000     0.227600000000     0.0391242  
H90      H      0.868960000000     0.966830000000     0.339150000000     0.0468321  
H91      H      0.788220000000     0.931670000000     0.309710000000     0.0401648  
H92      H      0.814690000000     0.975630000000     0.334730000000     0.0401729  
H93      H      0.761360000000     0.027160000000     0.216610000000     0.0422952  
H94      H      0.709700000000     0.026600000000     0.200490000000     0.0396952  
H95      H      0.844230000000     0.916420000000     0.270270000000     0.038086   
H96      H      0.554080000000     0.234860000000     0.295090000000     0.0440703  
H97      H      0.488690000000     0.325110000000     0.313000000000     0.0379126  
H98      H      0.462540000000     0.254650000000     0.372910000000     0.0420415  
H99      H      0.525250000000     0.196760000000     0.184360000000     0.0400557  
H100     H      0.487850000000     0.344510000000     0.366680000000     0.0448346  
H101     H      0.517860000000     0.171730000000     0.281530000000     0.0385963  
H102     H      0.530740000000     0.241040000000     0.215550000000     0.0379231  
H103     H      0.550810000000     0.139030000000     0.248500000000     0.0487622  
H104     H      0.429390000000     0.289220000000     0.404470000000     0.0433882  
H105     H      0.535510000000     0.269330000000     0.335460000000     0.050205   
H106     H      0.456930000000     0.359720000000     0.344780000000     0.0461522  
H107     H      0.464760000000     0.227380000000     0.256200000000     0.0467935  
H108     H      0.449710000000     0.314490000000     0.314890000000     0.0394399  
H109     H      0.563580000000     0.208810000000     0.181840000000     0.0465647  
H110     H      0.555210000000     0.185980000000     0.275470000000     0.0409035  
H111     H      0.562730000000     0.226650000000     0.236820000000     0.041133   
H112     H      0.446340000000     0.262450000000     0.296040000000     0.0426009  
H113     H      0.434650000000     0.273690000000     0.349980000000     0.03951    
H114     H      0.516760000000     0.150000000000     0.228920000000     0.0411755  
H115     H      0.237810000000     0.025960000000     0.781620000000     0.0428971  
H116     H      0.248590000000     0.936590000000     0.859510000000     0.0372821  
H117     H      0.321560000000     0.949360000000     0.795840000000     0.0417801  
H118     H      0.150670000000     0.000730000000     0.708740000000     0.0389008  
H119     H      0.292700000000     0.937820000000     0.892870000000     0.0426463  
H120     H      0.245220000000     0.005410000000     0.702830000000     0.0374219  
H121     H      0.169070000000     0.997050000000     0.763060000000     0.0367612  
H122     H      0.217980000000     0.042020000000     0.669030000000     0.0465696  
H123     H      0.352460000000     0.913260000000     0.827710000000     0.0450268  
H124     H      0.270500000000     0.003400000000     0.821890000000     0.049545   
H125     H      0.279330000000     0.900820000000     0.891430000000     0.0455716  
H126     H      0.220700000000     0.941040000000     0.740610000000     0.0463482  
H127     H      0.262640000000     0.906190000000     0.836500000000     0.0390418  
H128     H      0.141050000000     0.033650000000     0.729840000000     0.0446203  
H129     H      0.232580000000     0.036970000000     0.724950000000     0.040094   
H130     H      0.187660000000     0.032040000000     0.760480000000     0.0392539  
H131     H      0.253420000000     0.918490000000     0.780890000000     0.0426177  
H132     H      0.305170000000     0.913680000000     0.800030000000     0.0402841  
H133     H      0.201280000000     0.006240000000     0.668750000000     0.0395947  
H134     H      0.505200000000     0.798600000000     0.806680000000     0.0436943  
H135     H      0.585640000000     0.718010000000     0.791020000000     0.0379784  
H136     H      0.538750000000     0.739700000000     0.705910000000     0.0419738  
H137     H      0.431810000000     0.752040000000     0.883950000000     0.0402792  
H138     H      0.623090000000     0.727390000000     0.750290000000     0.0438587  
H139     H      0.433510000000     0.776040000000     0.786770000000     0.0374462  
H140     H      0.484400000000     0.755060000000     0.869350000000     0.0380247  
H141     H      0.396890000000     0.804250000000     0.820200000000     0.0471109  
H142     H      0.575590000000     0.709640000000     0.673880000000     0.0460974  
H143     H      0.548630000000     0.784820000000     0.773820000000     0.0498867  
H144     H      0.623200000000     0.689130000000     0.759870000000     0.0470628  
H145     H      0.471950000000     0.710140000000     0.801220000000     0.0467692  
H146     H      0.568870000000     0.689020000000     0.767830000000     0.0398798  
H147     H      0.448350000000     0.783020000000     0.903650000000     0.0486648  
H148     H      0.450780000000     0.805350000000     0.809060000000     0.0410093  
H149     H      0.480820000000     0.792960000000     0.857900000000     0.0411081  
H150     H      0.515230000000     0.696420000000     0.768200000000     0.0427393  
H151     H      0.541330000000     0.702000000000     0.717670000000     0.0407515  
H152     H      0.398220000000     0.765880000000     0.829470000000     0.0390305  
H153     H      0.488570000000     0.933940000000     0.043400000000     0.0435579  
H154     H      0.570760000000     0.015990000000     0.044850000000     0.0376658  
H155     H      0.495710000000     0.031620000000     0.104830000000     0.0420137  
H156     H      0.446580000000     0.937760000000     0.930460000000     0.0418533  
H157     H      0.592450000000     0.025210000000     0.096390000000     0.0452491  
H158     H      0.418920000000     0.959950000000     0.025410000000     0.0379916  
H159     H      0.491250000000     0.942140000000     0.962530000000     0.037751   
H160     H      0.388860000000     0.919350000000     0.000120000000     0.0460107  
H161     H      0.524580000000     0.072260000000     0.132300000000     0.043785   
H162     H      0.521820000000     0.962400000000     0.078370000000     0.0504648  
H163     H      0.599100000000     0.056890000000     0.072170000000     0.0451921  
H164     H      0.467820000000     0.012030000000     0.990010000000     0.0479785  
H165     H      0.552000000000     0.050930000000     0.043930000000     0.0386419  
H166     H      0.461280000000     0.901710000000     0.936990000000     0.046602   
H167     H      0.437010000000     0.924670000000     0.026590000000     0.0402635  
H168     H      0.478880000000     0.914330000000     0.990100000000     0.0400724  
H169     H      0.501130000000     0.040480000000     0.024970000000     0.0427178  
H170     H      0.509370000000     0.059930000000     0.078940000000     0.0395622  
H171     H      0.395900000000     0.950060000000     0.974530000000     0.0411359  
H172     H      0.942700000000     0.749450000000     0.286360000000     0.0433845  
H173     H      0.021130000000     0.718360000000     0.203560000000     0.0371093  
H174     H      0.015210000000     0.658270000000     0.280660000000     0.0425647  
H175     H      0.985420000000     0.840730000000     0.339650000000     0.0384913  
H176     H      0.014750000000     0.670250000000     0.180250000000     0.0433074  
H177     H      0.966840000000     0.753180000000     0.362910000000     0.038117   
H178     H      0.984000000000     0.814640000000     0.289150000000     0.036627   
H179     H      0.935340000000     0.789980000000     0.391950000000     0.0477414  
H180     H      0.047750000000     0.622570000000     0.250160000000     0.0464734  
H181     H      0.958850000000     0.709340000000     0.251380000000     0.0497288  
H182     H      0.052170000000     0.682910000000     0.172290000000     0.0449652  
H183     H      0.034360000000     0.762650000000     0.316260000000     0.0463488  
H184     H      0.054980000000     0.707480000000     0.224040000000     0.0387491  
H185     H      0.952930000000     0.852210000000     0.317450000000     0.0448864  
H186     H      0.935610000000     0.766450000000     0.339580000000     0.0406961  
H187     H      0.945820000000     0.802900000000     0.295800000000     0.0398974  
H188     H      0.050600000000     0.722970000000     0.280750000000     0.0424527  
H189     H      0.051350000000     0.672110000000     0.269100000000     0.0402182  
H190     H      0.974000000000     0.800550000000     0.387860000000     0.0397034  
H191     H      0.247470000000     0.671280000000     0.052210000000     0.0427695  
H192     H      0.260190000000     0.748880000000     0.963970000000     0.0373655  
H193     H      0.315250000000     0.765130000000     0.044740000000     0.0417478  
H194     H      0.138910000000     0.685870000000     0.087220000000     0.0402937  
H195     H      0.310240000000     0.754300000000     0.942970000000     0.0422851  
H196     H      0.227330000000     0.698590000000     0.124590000000     0.0369667  
H197     H      0.172890000000     0.687350000000     0.042440000000     0.0369595  
H198     H      0.196840000000     0.660650000000     0.153790000000     0.0443079  
H199     H      0.344030000000     0.803160000000     0.012900000000     0.0443036  
H200     H      0.285030000000     0.696100000000     0.018890000000     0.0494288  
H201     H      0.289000000000     0.786160000000     0.932280000000     0.0457621  
H202     H      0.203780000000     0.753890000000     0.069830000000     0.046236   
H203     H      0.260710000000     0.784770000000     0.981840000000     0.039229   
H204     H      0.142170000000     0.649530000000     0.071390000000     0.046555   
H205     H      0.226200000000     0.663470000000     0.105010000000     0.0388775  
H206     H      0.194560000000     0.656940000000     0.057330000000     0.0392486  
H207     H      0.241270000000     0.778700000000     0.036420000000     0.0423893  
H208     H      0.292850000000     0.794070000000     0.028260000000     0.0397966  
H209     H      0.176760000000     0.693570000000     0.144360000000     0.0390302  
H210     H      0.250460000000     0.457510000000     0.334360000000     0.0442377  
H211     H      0.205790000000     0.554030000000     0.292280000000     0.037857   
H212     H      0.211750000000     0.488500000000     0.220800000000     0.041786   
H213     H      0.360450000000     0.479760000000     0.357880000000     0.0387099  
H214     H      0.155960000000     0.550520000000     0.270190000000     0.0444515  
H215     H      0.309150000000     0.431020000000     0.291750000000     0.0374903  
H216     H      0.310530000000     0.500900000000     0.358440000000     0.0374422  
H217     H      0.341250000000     0.400680000000     0.328150000000     0.0464334  
H218     H      0.178510000000     0.519180000000     0.184760000000     0.043129   
H219     H      0.207210000000     0.479240000000     0.306830000000     0.0504248  
H220     H      0.172370000000     0.584170000000     0.256740000000     0.0461898  
H221     H      0.310460000000     0.508290000000     0.275540000000     0.0463986  
H222     H      0.222220000000     0.562590000000     0.254040000000     0.0390383  
H223     H      0.342820000000     0.471300000000     0.395360000000     0.0469059  
H224     H      0.292830000000     0.425440000000     0.330710000000     0.0411742  
H225     H      0.293630000000     0.466610000000     0.369970000000     0.0413143  
H226     H      0.267160000000     0.530410000000     0.248390000000     0.0424255  
H227     H      0.225180000000     0.524780000000     0.212770000000     0.0393197  
H228     H      0.359460000000     0.433080000000     0.313530000000     0.0385099  
H229     H      0.044720000000     0.239790000000     0.734860000000     0.0428727  
H230     H      0.944650000000     0.259630000000     0.783380000000     0.037778   
H231     H      0.012340000000     0.287040000000     0.848120000000     0.0416697  
H232     H      0.052940000000     0.127520000000     0.739230000000     0.0395136  
H233     H      0.932750000000     0.309740000000     0.796230000000     0.0452736  
H234     H      0.096490000000     0.203320000000     0.774090000000     0.037179   
H235     H      0.016530000000     0.166750000000     0.736140000000     0.0367947  
H236     H      0.127260000000     0.173900000000     0.735110000000     0.0447232  
H237     H      0.972640000000     0.313190000000     0.881080000000     0.0436441  
H238     H      0.013150000000     0.277900000000     0.758820000000     0.0496193  
H239     H      0.905640000000     0.286420000000     0.815130000000     0.0461143  
H240     H      0.024200000000     0.182180000000     0.813420000000     0.0461138  
H241     H      0.942960000000     0.248420000000     0.824630000000     0.0387744  
H242     H      0.046520000000     0.136450000000     0.698010000000     0.0463903  
H243     H      0.087210000000     0.209890000000     0.732770000000     0.0387767  
H244     H      0.040440000000     0.188350000000     0.710560000000     0.0397324  
H245     H      0.991670000000     0.219870000000     0.836720000000     0.0422614  
H246     H      0.981950000000     0.264600000000     0.861980000000     0.0387094  
H247     H      0.107320000000     0.152360000000     0.764010000000     0.0386328  
H248     H      0.758560000000     0.279340000000     0.016630000000     0.0441266  
H249     H      0.678660000000     0.198410000000     0.031890000000     0.0377768  
H250     H      0.738750000000     0.205880000000     0.110120000000     0.0417003  
H251     H      0.822410000000     0.242820000000     0.924190000000     0.0382999  
H252     H      0.647110000000     0.203550000000     0.078360000000     0.0441791  
H253     H      0.831320000000     0.256450000000     0.022810000000     0.0375063  
H254     H      0.771610000000     0.242650000000     0.945240000000     0.0381272  
H255     H      0.863100000000     0.289420000000     0.988790000000     0.0466143  
H256     H      0.704610000000     0.173470000000     0.143060000000     0.0438849  
H257     H      0.719440000000     0.261320000000     0.052930000000     0.0503212  
H258     H      0.644510000000     0.166450000000     0.064660000000     0.0456503  
H259     H      0.790420000000     0.191110000000     0.003240000000     0.0460087  
H260     H      0.696710000000     0.166140000000     0.047570000000     0.0386027  
H261     H      0.802910000000     0.274790000000     0.910300000000     0.0492186  
H262     H      0.811010000000     0.287390000000     0.007020000000     0.041368   
H263     H      0.775690000000     0.279220000000     0.960900000000     0.0423139  
H264     H      0.751100000000     0.173060000000     0.039360000000     0.0421479  
H265     H      0.731100000000     0.170600000000     0.093150000000     0.0388988  
H266     H      0.861500000000     0.252280000000     0.974770000000     0.0375954  
H267     H      0.719120000000     0.487650000000     0.741200000000     0.0435014  
H268     H      0.814900000000     0.445810000000     0.783020000000     0.038661   
H269     H      0.744970000000     0.428430000000     0.849300000000     0.0427452  
H270     H      0.733730000000     0.598860000000     0.752140000000     0.0406905  
H271     H      0.816440000000     0.393810000000     0.793850000000     0.0450555  
H272     H      0.677700000000     0.531040000000     0.785970000000     0.0377206  
H273     H      0.761480000000     0.553790000000     0.744590000000     0.0383903  
H274     H      0.651550000000     0.567810000000     0.750970000000     0.0451283  
H275     H      0.779600000000     0.394180000000     0.879480000000     0.0453812  
H276     H      0.743010000000     0.442910000000     0.761240000000     0.0499238  
H277     H      0.848810000000     0.410870000000     0.811340000000     0.0479012  
H278     H      0.754330000000     0.535710000000     0.821500000000     0.0475711  
H279     H      0.820200000000     0.454880000000     0.824580000000     0.0408614  
H280     H      0.736330000000     0.591180000000     0.710140000000     0.0476758  
H281     H      0.683310000000     0.525050000000     0.743810000000     0.0395868  
H282     H      0.732490000000     0.538480000000     0.719550000000     0.0411804  
H283     H      0.779230000000     0.491260000000     0.840830000000     0.0441558  
H284     H      0.779360000000     0.444500000000     0.863180000000     0.0412878  
H285     H      0.677200000000     0.583580000000     0.779210000000     0.0398126  
H286     H      0.984450000000     0.530310000000     0.045990000000     0.043665   
H287     H      0.970260000000     0.460150000000     0.952550000000     0.038673   
H288     H      0.911160000000     0.440060000000     0.029070000000     0.0426012  
H289     H      0.089750000000     0.506730000000     0.086760000000     0.0413044  
H290     H      0.920250000000     0.456840000000     0.930090000000     0.043349   
H291     H      0.999220000000     0.499050000000     0.117510000000     0.0393552  
H292     H      0.058890000000     0.508870000000     0.039280000000     0.0375048  
H293     H      0.030520000000     0.533560000000     0.150160000000     0.0496724  
H294     H      0.883350000000     0.404460000000     0.993360000000     0.045261   
H295     H      0.946790000000     0.509500000000     0.009660000000     0.0497686  
H296     H      0.942220000000     0.426430000000     0.916380000000     0.0497886  
H297     H      0.022010000000     0.444420000000     0.060620000000     0.0475238  
H298     H      0.968630000000     0.423120000000     0.967400000000     0.0412865  
H299     H      0.090710000000     0.543400000000     0.071390000000     0.0469242  
H300     H      0.003700000000     0.534650000000     0.099510000000     0.040871   
H301     H      0.038600000000     0.540370000000     0.053690000000     0.0399735  
H302     H      0.984660000000     0.423670000000     0.023970000000     0.0432047  
H303     H      0.933860000000     0.411500000000     0.012240000000     0.0407449  
H304     H      0.049300000000     0.500140000000     0.139740000000     0.0426385  
In1      In     0.874100000000     0.349900000000     0.897820000000     2.40821    
In2      In     0.112090000000     0.598290000000     0.164610000000     2.39977    
In3      In     0.370080000000     0.851440000000     0.916240000000     2.41388    
In4      In     0.615170000000     0.120110000000     0.161200000000     2.39961    
In5      In     0.388660000000     0.382610000000     0.427130000000     2.39993    
In6      In     0.650710000000     0.637580000000     0.667350000000     2.40443    
In7      In     0.878020000000     0.876610000000     0.392420000000     2.40074    
In8      In     0.137020000000     0.106230000000     0.649670000000     2.39745    
N1       N      0.918500000000     0.919520000000     0.465740000000    -0.168      
N2       N      0.956110000000     0.955390000000     0.503160000000    -0.110634   
N3       N      0.048720000000     0.033730000000     0.542230000000    -0.113264   
N4       N      0.089080000000     0.066780000000     0.579280000000    -0.167218   
N5       N      0.922390000000     0.883840000000     0.542260000000    -0.105039   
N6       N      0.708720000000     0.681390000000     0.609270000000    -0.169142   
N7       N      0.739480000000     0.716710000000     0.564850000000    -0.110322   
N8       N      0.769650000000     0.799920000000     0.468580000000    -0.113075   
N9       N      0.803610000000     0.837180000000     0.429130000000    -0.169388   
N10      N      0.773730000000     0.639310000000     0.587170000000    -0.103034   
N11      N      0.326920000000     0.338150000000     0.480120000000    -0.170403   
N12      N      0.288080000000     0.300900000000     0.514490000000    -0.110425   
N13      N      0.228850000000     0.201780000000     0.568150000000    -0.11285    
N14      N      0.191520000000     0.162870000000     0.601910000000    -0.168701   
N15      N      0.257880000000     0.378550000000     0.486530000000    -0.10523    
N16      N      0.594560000000     0.588100000000     0.612970000000    -0.168661   
N17      N      0.555540000000     0.553490000000     0.575850000000    -0.11041    
N18      N      0.477190000000     0.465780000000     0.526590000000    -0.112815   
N19      N      0.440560000000     0.430570000000     0.487490000000    -0.167242   
N20      N      0.623030000000     0.594530000000     0.532920000000    -0.103744   
N21      N      0.666970000000     0.068820000000     0.218550000000    -0.168692   
N22      N      0.709360000000     0.033940000000     0.250920000000    -0.110491   
N23      N      0.811680000000     0.965740000000     0.284840000000    -0.113411   
N24      N      0.849700000000     0.927690000000     0.318830000000    -0.168358   
N25      N      0.622860000000     0.016360000000     0.262130000000    -0.101907   
N26      N      0.445600000000     0.327690000000     0.380590000000    -0.168773   
N27      N      0.479700000000     0.288620000000     0.343120000000    -0.110301   
N28      N      0.520420000000     0.207510000000     0.249070000000    -0.112842   
N29      N      0.555560000000     0.170430000000     0.210430000000    -0.168507   
N30      N      0.497960000000     0.295480000000     0.435690000000    -0.103907   
N31      N      0.320100000000     0.909580000000     0.865500000000    -0.168906   
N32      N      0.284440000000     0.947190000000     0.827960000000    -0.110536   
N33      N      0.207970000000     0.997480000000     0.733530000000    -0.113047   
N34      N      0.176360000000     0.037430000000     0.694860000000    -0.168466   
N35      N      0.360590000000     0.977640000000     0.864170000000    -0.106078   
N36      N      0.604170000000     0.700810000000     0.714160000000    -0.167742   
N37      N      0.561460000000     0.732380000000     0.750040000000    -0.110539   
N38      N      0.459910000000     0.762190000000     0.826380000000    -0.113052   
N39      N      0.418310000000     0.792630000000     0.864610000000    -0.167443   
N40      N      0.608470000000     0.774490000000     0.684210000000    -0.104648   
N41      N      0.566340000000     0.061930000000     0.109450000000    -0.167843   
N42      N      0.533120000000     0.019400000000     0.075940000000    -0.110194   
N43      N      0.455600000000     0.955200000000     0.993220000000    -0.112131   
N44      N      0.420700000000     0.912300000000     0.962310000000    -0.167689   
N45      N      0.543370000000     0.010450000000     0.169610000000    -0.101545   
N46      N      0.048070000000     0.648460000000     0.207270000000    -0.169263   
N47      N      0.014270000000     0.689350000000     0.242660000000    -0.110558   
N48      N      0.978870000000     0.782330000000     0.325350000000    -0.113151   
N49      N      0.944570000000     0.824470000000     0.358160000000    -0.168138   
N50      N      0.978080000000     0.612050000000     0.223390000000    -0.103702   
N51      N      0.322740000000     0.792290000000     0.968510000000    -0.168548   
N52      N      0.288220000000     0.752730000000     0.004940000000    -0.110677   
N53      N      0.200000000000     0.697130000000     0.082920000000    -0.112939   
N54      N      0.163700000000     0.657130000000     0.116620000000    -0.167724   
N55      N      0.375950000000     0.738920000000     0.996360000000    -0.105088   
N56      N      0.167730000000     0.550380000000     0.221290000000    -0.169067   
N57      N      0.207830000000     0.518250000000     0.259830000000    -0.110286   
N58      N      0.309840000000     0.468540000000     0.321900000000    -0.112992   
N59      N      0.347490000000     0.435490000000     0.362260000000    -0.167899   
N60      N      0.132330000000     0.480220000000     0.230790000000    -0.104311   
N61      N      0.937810000000     0.306900000000     0.846330000000    -0.16894    
N62      N      0.981010000000     0.274550000000     0.812080000000    -0.110328   
N63      N      0.054890000000     0.184890000000     0.759120000000    -0.11305    
N64      N      0.089150000000     0.149780000000     0.717520000000    -0.168596   
N65      N      0.993610000000     0.360050000000     0.824290000000    -0.103677   
N66      N      0.669220000000     0.173130000000     0.108240000000    -0.16861    
N67      N      0.708920000000     0.206370000000     0.070270000000    -0.110373   
N68      N      0.800620000000     0.246090000000     0.985480000000    -0.112852   
N69      N      0.836770000000     0.281890000000     0.946370000000    -0.167621   
N70      N      0.677590000000     0.241170000000     0.150430000000    -0.104683   
N71      N      0.814610000000     0.396390000000     0.844240000000    -0.168828   
N72      N      0.777210000000     0.437010000000     0.812800000000    -0.110283   
N73      N      0.721390000000     0.541950000000     0.769100000000    -0.112729   
N74      N      0.692830000000     0.584900000000     0.731630000000    -0.16913    
N75      N      0.749960000000     0.354520000000     0.820580000000    -0.103696   
N76      N      0.907940000000     0.416570000000     0.951240000000    -0.168173   
N77      N      0.940780000000     0.453930000000     0.992010000000    -0.110148   
N78      N      0.028660000000     0.500070000000     0.077460000000    -0.112694   
N79      N      0.065340000000     0.537030000000     0.114610000000    -0.16691    
N80      N      0.854210000000     0.470110000000     0.977670000000    -0.105041   
O1       O      0.922070000000     0.333540000000     0.890050000000    -0.4994     
O2       O      0.889190000000     0.322010000000     0.855560000000    -0.500882   
O3       O      0.871070000000     0.319490000000     0.941170000000    -0.498667   
O4       O      0.905940000000     0.388160000000     0.905830000000    -0.499029   
O5       O      0.861370000000     0.376680000000     0.853910000000    -0.500919   
O6       O      0.875660000000     0.377670000000     0.943330000000    -0.495537   
O7       O      0.840380000000     0.312740000000     0.903020000000    -0.500184   
O8       O      0.827660000000     0.369720000000     0.888920000000    -0.499334   
O9       O      0.079740000000     0.608560000000     0.205500000000    -0.49145    
O10      O      0.080850000000     0.637900000000     0.166250000000    -0.508335   
O11      O      0.142670000000     0.559090000000     0.174020000000    -0.506431   
O12      O      0.104100000000     0.570140000000     0.120260000000    -0.491131   
O13      O      0.124740000000     0.624020000000     0.119850000000    -0.492141   
O14      O      0.073230000000     0.566200000000     0.158710000000    -0.501623   
O15      O      0.138410000000     0.590860000000     0.210760000000    -0.494617   
O16      O      0.151980000000     0.629600000000     0.161080000000    -0.505452   
O17      O      0.362940000000     0.882500000000     0.874390000000    -0.50027    
O18      O      0.326670000000     0.876700000000     0.906750000000    -0.500891   
O19      O      0.359950000000     0.827050000000     0.962650000000    -0.49913    
O20      O      0.407450000000     0.817680000000     0.910970000000    -0.501376   
O21      O      0.413750000000     0.876450000000     0.924340000000    -0.502734   
O22      O      0.380930000000     0.827180000000     0.870040000000    -0.498704   
O23      O      0.331960000000     0.818630000000     0.922550000000    -0.504719   
O24      O      0.377490000000     0.885080000000     0.955910000000    -0.501732   
O25      O      0.648240000000     0.113570000000     0.202530000000    -0.490776   
O26      O      0.634360000000     0.076060000000     0.176610000000    -0.502272   
O27      O      0.587970000000     0.162100000000     0.168440000000    -0.506376   
O28      O      0.657550000000     0.147350000000     0.153900000000    -0.500993   
O29      O      0.609630000000     0.088190000000     0.119570000000    -0.490138   
O30      O      0.626960000000     0.144510000000     0.115110000000    -0.496397   
O31      O      0.583950000000     0.128770000000     0.203440000000    -0.498877   
O32      O      0.571640000000     0.096580000000     0.149020000000    -0.501781   
O33      O      0.395160000000     0.418490000000     0.464510000000    -0.489809   
O34      O      0.433900000000     0.395840000000     0.448240000000    -0.500203   
O35      O      0.342700000000     0.360740000000     0.433750000000    -0.505402   
O36      O      0.366470000000     0.391070000000     0.378800000000    -0.498615   
O37      O      0.424120000000     0.372890000000     0.389370000000    -0.49727    
O38      O      0.369190000000     0.426600000000     0.411320000000    -0.497638   
O39      O      0.373360000000     0.359190000000     0.472430000000    -0.506001   
O40      O      0.408990000000     0.337470000000     0.418130000000    -0.50357    
O41      O      0.638570000000     0.663140000000     0.712200000000    -0.501859   
O42      O      0.616790000000     0.674920000000     0.668800000000    -0.491075   
O43      O      0.682240000000     0.675810000000     0.656200000000    -0.501632   
O44      O      0.692670000000     0.617730000000     0.689890000000    -0.508807   
O45      O      0.604070000000     0.625120000000     0.649000000000    -0.495764   
O46      O      0.650400000000     0.604350000000     0.708220000000    -0.505076   
O47      O      0.676640000000     0.643250000000     0.620660000000    -0.496862   
O48      O      0.641070000000     0.599380000000     0.633760000000    -0.496529   
O49      O      0.905840000000     0.834730000000     0.392930000000    -0.495056   
O50      O      0.916190000000     0.866670000000     0.357680000000    -0.507772   
O51      O      0.851810000000     0.884000000000     0.346240000000    -0.506153   
O52      O      0.842790000000     0.840090000000     0.393280000000    -0.498738   
O53      O      0.912970000000     0.880010000000     0.432050000000    -0.501076   
O54      O      0.838960000000     0.873900000000     0.427660000000    -0.509177   
O55      O      0.876520000000     0.919800000000     0.365100000000    -0.495802   
O56      O      0.883240000000     0.915900000000     0.425580000000    -0.48688    
O57      O      0.179890000000     0.133760000000     0.645220000000    -0.494725   
O58      O      0.147700000000     0.136750000000     0.608060000000    -0.507933   
O59      O      0.137510000000     0.070050000000     0.687280000000    -0.507879   
O60      O      0.133320000000     0.138430000000     0.691460000000    -0.506081   
O61      O      0.097670000000     0.104330000000     0.614890000000    -0.486636   
O62      O      0.093300000000     0.118450000000     0.674680000000    -0.498217   
O63      O      0.175910000000     0.074520000000     0.657530000000    -0.497085   
O64      O      0.128480000000     0.068770000000     0.614890000000    -0.503054   


