data_structure

_audit_creation_method RASPA-1.0
_audit_creation_date 2023-6-5
_audit_author_name 'Poobodin Mano'

_cell_length_a    54.3737
_cell_length_b    57.1183
_cell_length_c    29.9324
_cell_angle_alpha 89.777
_cell_angle_beta  90.223
_cell_angle_gamma 89.9997
_cell_volume      92960.6

_symmetry_cell_setting          triclinic
_symmetry_space_group_name_Hall 'P 1'
_symmetry_space_group_name_H-M  'P 1'
_symmetry_Int_Tables_number     1

_symmetry_equiv_pos_as_xyz 'x,y,z'

loop_
_atom_site_label
_atom_site_type_symbol
_atom_site_fract_x
_atom_site_fract_y
_atom_site_fract_z
_atom_site_charge
C1       C      0.332630000000     0.373160000000     0.950050000000     0.403883   
C2       C      0.317470000000     0.302300000000     0.904400000000     0.405093   
C3       C      0.390470000000     0.329020000000     0.975590000000     0.408041   
C4       C      0.322550000000     0.306040000000     0.041170000000     0.399958   
C5       C      0.333680000000     0.615700000000     0.961790000000     0.40337    
C6       C      0.318760000000     0.681500000000     0.055110000000     0.403615   
C7       C      0.388360000000     0.666910000000     0.002590000000     0.406825   
C8       C      0.316940000000     0.683170000000     0.914920000000     0.408459   
C9       C      0.646580000000     0.319510000000     0.025120000000     0.403182   
C10      C      0.722560000000     0.293060000000     0.976330000000     0.404139   
C11      C      0.701540000000     0.366380000000     0.022120000000     0.401353   
C12      C      0.711630000000     0.301680000000     0.111730000000     0.400656   
C13      C      0.695430000000     0.611220000000     0.010300000000     0.405979   
C14      C      0.716800000000     0.671880000000     0.938320000000     0.405735   
C15      C      0.643870000000     0.666150000000     0.026110000000     0.406042   
C16      C      0.712230000000     0.683050000000     0.080820000000     0.40041    
C17      C      0.837270000000     0.112030000000     0.530040000000     0.40247    
C18      C      0.825470000000     0.177620000000     0.612050000000     0.404922   
C19      C      0.891880000000     0.159760000000     0.525600000000     0.407465   
C20      C      0.816210000000     0.184790000000     0.476020000000     0.405618   
C21      C      0.888940000000     0.820600000000     0.505910000000     0.408955   
C22      C      0.821030000000     0.795790000000     0.584220000000     0.412285   
C23      C      0.830420000000     0.867340000000     0.518670000000     0.411631   
C24      C      0.816500000000     0.798510000000     0.447200000000     0.40646    
C25      C      0.145690000000     0.830230000000     0.479610000000     0.407616   
C26      C      0.212850000000     0.799650000000     0.415080000000     0.409241   
C27      C      0.209670000000     0.872290000000     0.472610000000     0.405893   
C28      C      0.214190000000     0.807010000000     0.555520000000     0.407239   
C29      C      0.147240000000     0.155960000000     0.471690000000     0.406693   
C30      C      0.213160000000     0.184340000000     0.541460000000     0.406822   
C31      C      0.208530000000     0.114930000000     0.463080000000     0.405151   
C32      C      0.217430000000     0.184210000000     0.400240000000     0.407721   
C33      C      0.230370000000     0.054510000000     0.495220000000    -0.0315499  
C34      C      0.208980000000     0.932490000000     0.429370000000    -0.0309594  
C35      C      0.230350000000     0.906880000000     0.504560000000    -0.00508554 
C36      C      0.215900000000     0.906710000000     0.424000000000    -0.00493587 
C37      C      0.242100000000     0.982930000000     0.451820000000    -0.0539687  
C38      C      0.197370000000     0.003470000000     0.475760000000    -0.0532604  
C39      C      0.222210000000     0.968650000000     0.463610000000     0.0618898  
C40      C      0.222860000000     0.932680000000     0.506790000000    -0.0309244  
C41      C      0.217210000000     0.017770000000     0.463670000000     0.0610513  
C42      C      0.217030000000     0.052980000000     0.418740000000    -0.044131   
C43      C      0.239720000000     0.007290000000     0.451860000000    -0.055754   
C44      C      0.209150000000     0.078880000000     0.417980000000     0.0418555  
C45      C      0.221970000000     0.079710000000     0.501840000000    -0.00286054 
C46      C      0.199780000000     0.979110000000     0.475840000000    -0.0562198  
C47      C      0.954720000000     0.835490000000     0.528790000000    -0.0313602  
C48      C      0.080990000000     0.816650000000     0.449990000000    -0.0308798  
C49      C      0.107930000000     0.846470000000     0.512230000000    -0.00458082 
C50      C      0.106980000000     0.824740000000     0.438110000000    -0.00501238 
C51      C      0.026280000000     0.846910000000     0.468920000000    -0.0540353  
C52      C      0.008890000000     0.805750000000     0.508670000000    -0.0532276  
C53      C      0.043050000000     0.829960000000     0.483690000000     0.0619087  
C54      C      0.081950000000     0.837250000000     0.520740000000    -0.0308611  
C55      C      0.992090000000     0.822650000000     0.493610000000     0.0608022  
C56      C      0.953090000000     0.817840000000     0.455860000000    -0.0439475  
C57      C      0.001030000000     0.843410000000     0.473880000000    -0.0555462  
C58      C      0.926130000000     0.810150000000     0.461600000000     0.0404119  
C59      C      0.928790000000     0.827570000000     0.540600000000    -0.00446175 
C60      C      0.034200000000     0.809340000000     0.503970000000    -0.0563282  
C61      C      0.832270000000     0.929110000000     0.480860000000    -0.0311619  
C62      C      0.827660000000     0.049690000000     0.564160000000    -0.0307983  
C63      C      0.839330000000     0.076690000000     0.483890000000    -0.00469953 
C64      C      0.838150000000     0.074350000000     0.569390000000    -0.00459206 
C65      C      0.852620000000     0.998830000000     0.523430000000    -0.053835   
C66      C      0.804870000000     0.980930000000     0.516980000000    -0.0533887  
C67      C      0.832660000000     0.014260000000     0.521250000000     0.0618532  
C68      C      0.828900000000     0.051810000000     0.483500000000    -0.0307689  
C69      C      0.824850000000     0.965470000000     0.519220000000     0.0609636  
C70      C      0.827550000000     0.929410000000     0.561170000000    -0.0437625  
C71      C      0.848850000000     0.974660000000     0.522520000000    -0.0556896  
C72      C      0.819860000000     0.903460000000     0.562420000000     0.0396213  
C73      C      0.823660000000     0.903780000000     0.477590000000    -0.00542097 
C74      C      0.808650000000     0.005150000000     0.518050000000    -0.0562838  
C75      C      0.952960000000     0.160690000000     0.468620000000    -0.0312445  
C76      C      0.084750000000     0.150390000000     0.519150000000    -0.030817   
C77      C      0.107530000000     0.157080000000     0.431910000000    -0.00494152 
C78      C      0.110800000000     0.141240000000     0.511310000000    -0.00471667 
C79      C      0.028260000000     0.135850000000     0.475250000000    -0.0539358  
C80      C      0.010790000000     0.178650000000     0.507260000000    -0.0531907  
C81      C      0.044870000000     0.154000000000     0.483890000000     0.0619022  
C82      C      0.081580000000     0.165440000000     0.443400000000    -0.0307936  
C83      C      0.994170000000     0.160420000000     0.498880000000     0.0608698  
C84      C      0.960010000000     0.148770000000     0.544910000000    -0.0438136  
C85      C      0.003140000000     0.138930000000     0.482680000000    -0.055632   
C86      C      0.933640000000     0.154980000000     0.559110000000     0.0404588  
C87      C      0.926870000000     0.168970000000     0.478190000000    -0.00474875 
C88      C      0.035960000000     0.175530000000     0.499900000000    -0.0562488  
C89      C      0.818660000000     0.754710000000     0.682190000000    -0.0313409  
C90      C      0.726980000000     0.701850000000     0.830970000000    -0.0308105  
C91      C      0.756200000000     0.678100000000     0.899390000000    -0.00542045 
C92      C      0.715510000000     0.681990000000     0.858240000000    -0.00519164 
C93      C      0.773540000000     0.704730000000     0.754540000000    -0.0538905  
C94      C      0.775620000000     0.752980000000     0.769690000000    -0.0532427  
C95      C      0.764570000000     0.713770000000     0.794700000000     0.0617994  
C96      C      0.766040000000     0.698060000000     0.870200000000    -0.0308128  
C97      C      0.784440000000     0.743950000000     0.729350000000     0.060854   
C98      C      0.777100000000     0.760460000000     0.656410000000    -0.0439486  
C99      C      0.783330000000     0.719600000000     0.722020000000    -0.0556481  
C100     C      0.784470000000     0.780150000000     0.623880000000     0.0410068  
C101     C      0.828720000000     0.774700000000     0.653700000000    -0.00427117 
C102     C      0.765700000000     0.738080000000     0.802150000000    -0.0562416  
C103     C      0.773340000000     0.787220000000     0.351310000000    -0.0314659  
C104     C      0.750400000000     0.697650000000     0.180930000000    -0.0308631  
C105     C      0.712470000000     0.719170000000     0.124910000000    -0.00450287 
C106     C      0.733880000000     0.681870000000     0.152700000000    -0.00454192 
C107     C      0.738160000000     0.733850000000     0.270180000000    -0.0539278  
C108     C      0.784400000000     0.753890000000     0.255800000000    -0.053214   
C109     C      0.749240000000     0.731820000000     0.228250000000     0.0619296  
C110     C      0.730190000000     0.732890000000     0.154800000000    -0.0309941  
C111     C      0.773460000000     0.755660000000     0.297960000000     0.0609382  
C112     C      0.792940000000     0.750690000000     0.369780000000    -0.0441131  
C113     C      0.750080000000     0.745640000000     0.304810000000    -0.0556787  
C114     C      0.810370000000     0.762060000000     0.404030000000     0.0414983  
C115     C      0.790230000000     0.801470000000     0.381520000000    -0.00354802 
C116     C      0.772440000000     0.742100000000     0.221090000000    -0.056339   
C117     C      0.821950000000     0.215480000000     0.714290000000    -0.0313153  
C118     C      0.735080000000     0.248520000000     0.890460000000    -0.0307121  
C119     C      0.761010000000     0.286720000000     0.934710000000    -0.00513898 
C120     C      0.728020000000     0.255310000000     0.938090000000    -0.00504003 
C121     C      0.787740000000     0.225910000000     0.843300000000    -0.0538643  
C122     C      0.769630000000     0.241050000000     0.760510000000    -0.0532059  
C123     C      0.770020000000     0.243680000000     0.841660000000     0.0618242  
C124     C      0.766690000000     0.278550000000     0.887220000000    -0.0308042  
C125     C      0.787300000000     0.223210000000     0.762150000000     0.0609392  
C126     C      0.788560000000     0.187960000000     0.718110000000    -0.0438274  
C127     C      0.796350000000     0.215710000000     0.804020000000    -0.0557184  
C128     C      0.793720000000     0.178150000000     0.671230000000     0.0404862  
C129     C      0.828570000000     0.208950000000     0.666500000000    -0.00398502 
C130     C      0.761010000000     0.251250000000     0.799860000000    -0.0562419  
C131     C      0.798550000000     0.234270000000     0.398900000000    -0.0316409  
C132     C      0.719640000000     0.259350000000     0.204770000000    -0.0308604  
C133     C      0.739130000000     0.304700000000     0.176950000000    -0.00514103 
C134     C      0.703830000000     0.275450000000     0.175530000000    -0.00511834 
C135     C      0.742990000000     0.264160000000     0.311990000000    -0.0538903  
C136     C      0.776370000000     0.228790000000     0.290200000000    -0.0531951  
C137     C      0.748130000000     0.259620000000     0.267060000000     0.0618813  
C138     C      0.753300000000     0.287250000000     0.206160000000    -0.0308191  
C139     C      0.771290000000     0.233370000000     0.335180000000     0.0610341  
C140     C      0.766180000000     0.205700000000     0.395630000000    -0.0440217  
C141     C      0.754410000000     0.251200000000     0.345860000000    -0.0556792  
C142     C      0.779920000000     0.188360000000     0.426360000000     0.0414576  
C143     C      0.815410000000     0.218750000000     0.427000000000    -0.00322496 
C144     C      0.764920000000     0.241760000000     0.256300000000    -0.0562263  
C145     C      0.687380000000     0.549770000000     0.969510000000    -0.0313226  
C146     C      0.710310000000     0.429980000000     0.048460000000    -0.0308729  
C147     C      0.696330000000     0.400430000000     0.973020000000    -0.00430034 
C148     C      0.702500000000     0.404770000000     0.057870000000    -0.00426711 
C149     C      0.677870000000     0.477460000000     0.011180000000    -0.0538242  
C150     C      0.722740000000     0.499520000000     0.993760000000    -0.0532213  
C151     C      0.698940000000     0.463880000000     0.004540000000     0.0619032  
C152     C      0.704320000000     0.426040000000     0.968900000000    -0.03088    
C153     C      0.701680000000     0.513140000000     0.000890000000     0.0607995  
C154     C      0.699930000000     0.547590000000     0.046690000000    -0.0439066  
C155     C      0.679130000000     0.501850000000     0.009550000000    -0.0556752  
C156     C      0.705980000000     0.573860000000     0.048880000000     0.0405559  
C157     C      0.693780000000     0.575700000000     0.965730000000    -0.00469347 
C158     C      0.721480000000     0.475070000000     0.995630000000    -0.0563353  
C159     C      0.309000000000     0.721760000000     0.814860000000    -0.0312231  
C160     C      0.218050000000     0.770450000000     0.658150000000    -0.0308927  
C161     C      0.250340000000     0.799250000000     0.602910000000    -0.00431414 
C162     C      0.206970000000     0.790300000000     0.630160000000    -0.00471003 
C163     C      0.260210000000     0.769780000000     0.745990000000    -0.0539311  
C164     C      0.266270000000     0.722000000000     0.729070000000    -0.0533704  
C165     C      0.253260000000     0.760740000000     0.704430000000     0.0619599  
C166     C      0.259300000000     0.778920000000     0.632090000000    -0.0310701  
C167     C      0.273200000000     0.731040000000     0.770710000000     0.0609565  
C168     C      0.268580000000     0.714410000000     0.844520000000    -0.0438249  
C169     C      0.270140000000     0.755150000000     0.778900000000    -0.0556584  
C170     C      0.278050000000     0.695420000000     0.876990000000     0.0403734  
C171     C      0.320740000000     0.702310000000     0.842560000000    -0.00463686 
C172     C      0.256430000000     0.736680000000     0.696050000000    -0.0563215  
C173     C      0.243700000000     0.783720000000     0.308000000000    -0.0312737  
C174     C      0.286360000000     0.688620000000     0.164030000000    -0.0307769  
C175     C      0.305830000000     0.717730000000     0.091890000000    -0.00449016 
C176     C      0.290210000000     0.677700000000     0.118000000000    -0.00487408 
C177     C      0.248480000000     0.734280000000     0.199920000000    -0.0538494  
C178     C      0.277660000000     0.735950000000     0.277000000000    -0.0533181  
C179     C      0.271870000000     0.724060000000     0.199680000000     0.0619989  
C180     C      0.301260000000     0.726430000000     0.139350000000    -0.0308832  
C181     C      0.254300000000     0.746320000000     0.277150000000     0.0608899  
C182     C      0.223350000000     0.749000000000     0.334850000000    -0.0438403  
C183     C      0.239730000000     0.745390000000     0.238150000000    -0.05565    
C184     C      0.216970000000     0.760320000000     0.380050000000     0.0400809  
C185     C      0.240610000000     0.796580000000     0.352020000000    -0.00413386 
C186     C      0.286470000000     0.724930000000     0.238600000000    -0.0563299  
C187     C      0.451080000000     0.658590000000     0.054520000000    -0.0317258  
C188     C      0.580330000000     0.684780000000     0.001550000000    -0.0308875  
C189     C      0.606340000000     0.656950000000     0.068590000000    -0.00503893 
C190     C      0.607110000000     0.690550000000     0.012940000000    -0.00514834 
C191     C      0.526090000000     0.684870000000     0.062410000000    -0.0540183  
C192     C      0.506250000000     0.656420000000     0.995500000000    -0.0531425  
C193     C      0.541860000000     0.672330000000     0.034440000000     0.0618741  
C194     C      0.579660000000     0.652480000000     0.054730000000    -0.030881   
C195     C      0.490470000000     0.669120000000     0.023240000000     0.0609102  
C196     C      0.453930000000     0.690410000000     0.002120000000    -0.0440489  
C197     C      0.500610000000     0.683320000000     0.057020000000    -0.0557159  
C198     C      0.427130000000     0.687700000000     0.986370000000     0.0415392  
C199     C      0.424760000000     0.652390000000     0.041210000000    -0.00305866 
C200     C      0.531750000000     0.657920000000     0.000990000000    -0.0563364  
C201     C      0.252970000000     0.199830000000     0.639350000000    -0.0312528  
C202     C      0.272140000000     0.286620000000     0.816390000000    -0.0308655  
C203     C      0.316580000000     0.267210000000     0.857170000000    -0.00494421 
C204     C      0.279060000000     0.293690000000     0.864050000000    -0.0049523  
C205     C      0.256640000000     0.233180000000     0.768520000000    -0.0539285  
C206     C      0.266810000000     0.253660000000     0.685590000000    -0.0533094  
C207     C      0.271230000000     0.253340000000     0.766520000000     0.0619442  
C208     C      0.307900000000     0.261490000000     0.809820000000    -0.0306377  
C209     C      0.252270000000     0.233440000000     0.687560000000     0.0609461  
C210     C      0.216200000000     0.223110000000     0.644570000000    -0.043898   
C211     C      0.247230000000     0.223240000000     0.729500000000    -0.0556664  
C212     C      0.206940000000     0.215530000000     0.598120000000     0.0404337  
C213     C      0.247330000000     0.192060000000     0.591810000000    -0.00434453 
C214     C      0.276290000000     0.263580000000     0.724670000000    -0.0563147  
C215     C      0.226280000000     0.229390000000     0.310590000000    -0.031188   
C216     C      0.312280000000     0.261770000000     0.131810000000    -0.0309047  
C217     C      0.290590000000     0.305330000000     0.098630000000    -0.0049241  
C218     C      0.318170000000     0.269710000000     0.084200000000    -0.00443776 
C219     C      0.258230000000     0.243720000000     0.180980000000    -0.0539065  
C220     C      0.280810000000     0.250840000000     0.263940000000    -0.0531917  
C221     C      0.278580000000     0.258630000000     0.184040000000     0.0619801  
C222     C      0.286300000000     0.295310000000     0.145410000000    -0.0306229  
C223     C      0.260470000000     0.235840000000     0.260870000000     0.0608002  
C224     C      0.255430000000     0.198480000000     0.297290000000    -0.0440162  
C225     C      0.249220000000     0.232370000000     0.218910000000    -0.0555296  
C226     C      0.249850000000     0.186280000000     0.342040000000     0.040586   
C227     C      0.219780000000     0.220270000000     0.356980000000    -0.00466489 
C228     C      0.289870000000     0.262170000000     0.225890000000    -0.0563881  
C229     C      0.453430000000     0.338580000000     0.024590000000    -0.0315565  
C230     C      0.583380000000     0.313570000000     0.976450000000    -0.0309656  
C231     C      0.606970000000     0.329470000000     0.058780000000    -0.00433448 
C232     C      0.610670000000     0.320010000000     0.975390000000    -0.00433235 
C233     C      0.531160000000     0.346690000000     0.996220000000    -0.0539671  
C234     C      0.506000000000     0.304500000000     0.008980000000    -0.0531556  
C235     C      0.544380000000     0.326360000000     0.006580000000     0.0619869  
C236     C      0.579930000000     0.322400000000     0.055110000000    -0.0308612  
C237     C      0.492760000000     0.324840000000     0.998360000000     0.0609143  
C238     C      0.458680000000     0.328730000000     0.947190000000    -0.043992   
C239     C      0.505590000000     0.346030000000     0.992110000000    -0.0556618  
C240     C      0.431170000000     0.323480000000     0.940300000000     0.0411258  
C241     C      0.426090000000     0.332670000000     0.024410000000    -0.003639   
C242     C      0.531620000000     0.305180000000     0.013150000000    -0.0563808  
C243     C      0.312590000000     0.435750000000     0.964920000000    -0.0316534  
C244     C      0.346140000000     0.557380000000     0.913500000000    -0.0310472  
C245     C      0.311510000000     0.578840000000     0.975310000000    -0.00526484 
C246     C      0.339800000000     0.583390000000     0.908500000000    -0.00514568 
C247     C      0.310280000000     0.505960000000     0.910850000000    -0.053867   
C248     C      0.349460000000     0.483980000000     0.954880000000    -0.053139   
C249     C      0.328250000000     0.519590000000     0.931990000000     0.0618485  
C250     C      0.319310000000     0.553180000000     0.977780000000    -0.0305541  
C251     C      0.331360000000     0.470330000000     0.934110000000     0.0610124  
C252     C      0.333440000000     0.433440000000     0.894530000000    -0.0442096  
C253     C      0.311680000000     0.481550000000     0.911960000000    -0.0557315  
C254     C      0.339040000000     0.407120000000     0.900140000000     0.0417228  
C255     C      0.318410000000     0.410580000000     0.978140000000    -0.00264103 
C256     C      0.347940000000     0.508410000000     0.954090000000    -0.0562418  
H1       H      0.184150000000     0.968460000000     0.485190000000     0.0414876  
H2       H      0.229920000000     0.045450000000     0.528230000000     0.0360308  
H3       H      0.205500000000     0.043300000000     0.394130000000     0.0400197  
H4       H      0.250470000000     0.905890000000     0.498360000000     0.0384299  
H5       H      0.206020000000     0.079710000000     0.525040000000     0.0409815  
H6       H      0.210880000000     0.941310000000     0.396330000000     0.0358136  
H7       H      0.235090000000     0.941650000000     0.531250000000     0.035823   
H8       H      0.202320000000     0.898260000000     0.401350000000     0.0451264  
H9       H      0.179980000000     0.011270000000     0.484990000000     0.045653   
H10      H      0.236920000000     0.089630000000     0.518780000000     0.0433799  
H11      H      0.259460000000     0.975130000000     0.442420000000     0.0453508  
H12      H      0.249760000000     0.054400000000     0.483300000000     0.0371607  
H13      H      0.226690000000     0.898530000000     0.537500000000     0.0444672  
H14      H      0.188940000000     0.079500000000     0.412190000000     0.0316646  
H15      H      0.189390000000     0.933710000000     0.439820000000     0.0382936  
H16      H      0.203600000000     0.933950000000     0.519040000000     0.0384532  
H17      H      0.255380000000     0.017900000000     0.442550000000     0.041038   
H18      H      0.236540000000     0.051240000000     0.407870000000     0.0417112  
H19      H      0.234220000000     0.905710000000     0.407750000000     0.0386877  
H20      H      0.205840000000     0.103620000000     0.344960000000     0.0415156  
H21      H      0.046810000000     0.796070000000     0.516030000000     0.0416489  
H22      H      0.965540000000     0.836940000000     0.560340000000     0.035772   
H23      H      0.962310000000     0.805270000000     0.433030000000     0.0402923  
H24      H      0.106620000000     0.864880000000     0.500190000000     0.0372832  
H25      H      0.930050000000     0.812060000000     0.563100000000     0.0400003  
H26      H      0.070440000000     0.814160000000     0.418420000000     0.0358366  
H27      H      0.072100000000     0.850110000000     0.542070000000     0.0355612  
H28      H      0.116580000000     0.810260000000     0.420610000000     0.0447513  
H29      H      0.002320000000     0.789770000000     0.524120000000     0.045444   
H30      H      0.919830000000     0.841820000000     0.559870000000     0.0441311  
H31      H      0.032850000000     0.862910000000     0.453540000000     0.0451708  
H32      H      0.953890000000     0.853170000000     0.513010000000     0.0377111  
H33      H      0.118210000000     0.846610000000     0.544430000000     0.0444273  
H34      H      0.925860000000     0.790850000000     0.466510000000     0.0305368  
H35      H      0.082060000000     0.799470000000     0.467600000000     0.0383575  
H36      H      0.083050000000     0.820340000000     0.539290000000     0.0387068  
H37      H      0.988520000000     0.856880000000     0.462280000000     0.0408482  
H38      H      0.953710000000     0.835450000000     0.439700000000     0.0422694  
H39      H      0.105610000000     0.839720000000     0.414380000000     0.0376011  
H40      H      0.898930000000     0.796600000000     0.394750000000     0.0407834  
H41      H      0.792920000000     0.016740000000     0.516610000000     0.041435   
H42      H      0.827320000000     0.938250000000     0.449150000000     0.0358489  
H43      H      0.818520000000     0.938590000000     0.589500000000     0.0403008  
H44      H      0.859300000000     0.075870000000     0.476090000000     0.0383064  
H45      H      0.803850000000     0.903690000000     0.468160000000     0.0387007  
H46      H      0.833130000000     0.039180000000     0.594000000000     0.0357386  
H47      H      0.835370000000     0.042900000000     0.452690000000     0.0356901  
H48      H      0.828440000000     0.083190000000     0.597300000000     0.0445335  
H49      H      0.786310000000     0.974150000000     0.514630000000     0.0452032  
H50      H      0.833920000000     0.895300000000     0.449960000000     0.0460593  
H51      H      0.871170000000     0.005600000000     0.526130000000     0.0453393  
H52      H      0.852660000000     0.929370000000     0.484430000000     0.0384458  
H53      H      0.830330000000     0.087010000000     0.456810000000     0.0439749  
H54      H      0.799530000000     0.902740000000     0.566020000000     0.0295475  
H55      H      0.807200000000     0.050560000000     0.563130000000     0.0378661  
H56      H      0.808440000000     0.052630000000     0.482230000000     0.0376291  
H57      H      0.864650000000     0.963190000000     0.524580000000     0.041123   
H58      H      0.847840000000     0.930770000000     0.566040000000     0.0430706  
H59      H      0.857880000000     0.072970000000     0.579010000000     0.0390167  
H60      H      0.815650000000     0.878700000000     0.635170000000     0.0393683  
H61      H      0.048450000000     0.189800000000     0.507050000000     0.0416434  
H62      H      0.960280000000     0.171160000000     0.440160000000     0.0359367  
H63      H      0.972350000000     0.150850000000     0.574440000000     0.0402304  
H64      H      0.106100000000     0.140410000000     0.413020000000     0.0381732  
H65      H      0.926910000000     0.188410000000     0.480390000000     0.0394459  
H66      H      0.075810000000     0.139040000000     0.544680000000     0.0357103  
H67      H      0.070260000000     0.165290000000     0.412330000000     0.0358414  
H68      H      0.121740000000     0.143710000000     0.542410000000     0.0445867  
H69      H      0.004200000000     0.195230000000     0.519930000000     0.0455363  
H70      H      0.915050000000     0.164230000000     0.449170000000     0.0448553  
H71      H      0.034880000000     0.119170000000     0.463100000000     0.0452319  
H72      H      0.952400000000     0.141980000000     0.458300000000     0.0376803  
H73      H      0.116280000000     0.170250000000     0.409590000000     0.045045   
H74      H      0.934420000000     0.171210000000     0.579460000000     0.0316309  
H75      H      0.085740000000     0.168520000000     0.532620000000     0.0386323  
H76      H      0.082490000000     0.183780000000     0.455790000000     0.0384346  
H77      H      0.990790000000     0.124480000000     0.476160000000     0.0409379  
H78      H      0.960850000000     0.130050000000     0.534500000000     0.0423148  
H79      H      0.109820000000     0.122120000000     0.504680000000     0.0376278  
H80      H      0.915140000000     0.140760000000     0.634590000000     0.0404648  
H81      H      0.758670000000     0.745540000000     0.832720000000     0.041615   
H82      H      0.830660000000     0.752740000000     0.712210000000     0.0358535  
H83      H      0.757760000000     0.763550000000     0.667050000000     0.0401729  
H84      H      0.762410000000     0.661180000000     0.885080000000     0.0374391  
H85      H      0.832530000000     0.789920000000     0.675750000000     0.0388978  
H86      H      0.718050000000     0.702190000000     0.797440000000     0.0358607  
H87      H      0.786180000000     0.695520000000     0.865820000000     0.0356562  
H88      H      0.695800000000     0.686130000000     0.864010000000     0.0458023  
H89      H      0.776130000000     0.771660000000     0.775660000000     0.045499   
H90      H      0.846660000000     0.769110000000     0.639510000000     0.0438755  
H91      H      0.772610000000     0.686090000000     0.748220000000     0.0452052  
H92      H      0.819640000000     0.738150000000     0.662760000000     0.0374897  
H93      H      0.764330000000     0.679640000000     0.933390000000     0.0435519  
H94      H      0.777500000000     0.797000000000     0.637370000000     0.0317082  
H95      H      0.723220000000     0.718860000000     0.847700000000     0.0388554  
H96      H      0.763080000000     0.715000000000     0.887660000000     0.0380883  
H97      H      0.789720000000     0.712130000000     0.691000000000     0.041014   
H98      H      0.777630000000     0.743220000000     0.639030000000     0.042547   
H99      H      0.716350000000     0.665630000000     0.838290000000     0.0382862  
H100     H      0.755500000000     0.794280000000     0.559730000000     0.0394573  
H101     H      0.781370000000     0.740750000000     0.188950000000     0.0414578  
H102     H      0.766930000000     0.798760000000     0.323530000000     0.0358716  
H103     H      0.802230000000     0.734940000000     0.355890000000     0.0401538  
H104     H      0.694190000000     0.718430000000     0.141390000000     0.0383832  
H105     H      0.803360000000     0.811420000000     0.360270000000     0.0401504  
H106     H      0.756350000000     0.687620000000     0.211070000000     0.0357945  
H107     H      0.720920000000     0.749330000000     0.165340000000     0.0356286  
H108     H      0.745270000000     0.667500000000     0.138650000000     0.0452221  
H109     H      0.802380000000     0.761460000000     0.250030000000     0.0455172  
H110     H      0.778910000000     0.814640000000     0.399470000000     0.0436692  
H111     H      0.720340000000     0.726000000000     0.276130000000     0.0454018  
H112     H      0.756890000000     0.781590000000     0.370650000000     0.0373583  
H113     H      0.710060000000     0.728860000000     0.092870000000     0.0426789  
H114     H      0.829380000000     0.761290000000     0.390500000000     0.0325478  
H115     H      0.767130000000     0.702350000000     0.161490000000     0.0379293  
H116     H      0.746870000000     0.737730000000     0.135340000000     0.0375596  
H117     H      0.741170000000     0.746690000000     0.337000000000     0.0409701  
H118     H      0.775840000000     0.744610000000     0.386690000000     0.0422464  
H119     H      0.719900000000     0.673650000000     0.174810000000     0.0388554  
H120     H      0.833180000000     0.737330000000     0.464550000000     0.0396014  
H121     H      0.747250000000     0.264900000000     0.797690000000     0.041772   
H122     H      0.827530000000     0.234000000000     0.719920000000     0.0359045  
H123     H      0.768570000000     0.185860000000     0.725120000000     0.0399814  
H124     H      0.774700000000     0.278800000000     0.957960000000     0.0371928  
H125     H      0.822550000000     0.223340000000     0.643820000000     0.0389386  
H126     H      0.731310000000     0.229500000000     0.886050000000     0.0357444  
H127     H      0.786500000000     0.281900000000     0.880410000000     0.0357693  
H128     H      0.707800000000     0.253220000000     0.941930000000     0.0451942  
H129     H      0.762450000000     0.246960000000     0.728610000000     0.0455258  
H130     H      0.848950000000     0.207890000000     0.663950000000     0.0444429  
H131     H      0.794800000000     0.219890000000     0.875220000000     0.0451625  
H132     H      0.832630000000     0.204250000000     0.737920000000     0.0376374  
H133     H      0.763250000000     0.306060000000     0.936210000000     0.0445995  
H134     H      0.778310000000     0.183470000000     0.648850000000     0.0309466  
H135     H      0.723370000000     0.258430000000     0.866320000000     0.0389679  
H136     H      0.755580000000     0.289000000000     0.863000000000     0.0387602  
H137     H      0.809940000000     0.201920000000     0.806360000000     0.0410869  
H138     H      0.798810000000     0.177620000000     0.743820000000     0.0422372  
H139     H      0.737090000000     0.242960000000     0.961770000000     0.0370304  
H140     H      0.776370000000     0.137910000000     0.645490000000     0.0402353  
H141     H      0.769160000000     0.237880000000     0.221820000000     0.0414417  
H142     H      0.810220000000     0.246430000000     0.378990000000     0.0360664  
H143     H      0.753960000000     0.195490000000     0.372970000000     0.0401833  
H144     H      0.731150000000     0.318420000000     0.198790000000     0.0397315  
H145     H      0.830920000000     0.212780000000     0.405730000000     0.0413083  
H146     H      0.707200000000     0.248490000000     0.225830000000     0.0358091  
H147     H      0.766000000000     0.297230000000     0.228260000000     0.03592    
H148     H      0.693230000000     0.264530000000     0.151540000000     0.044543   
H149     H      0.789280000000     0.215130000000     0.281470000000     0.0457953  
H150     H      0.823610000000     0.229530000000     0.454130000000     0.0423125  
H151     H      0.730100000000     0.277830000000     0.320720000000     0.0454799  
H152     H      0.786870000000     0.245030000000     0.421420000000     0.0369796  
H153     H      0.752290000000     0.313450000000     0.153920000000     0.0448974  
H154     H      0.784750000000     0.172690000000     0.406250000000     0.0328177  
H155     H      0.730430000000     0.247390000000     0.183020000000     0.0378389  
H156     H      0.764570000000     0.275690000000     0.184420000000     0.037759   
H157     H      0.750090000000     0.255110000000     0.380290000000     0.0409822  
H158     H      0.754180000000     0.217400000000     0.415820000000     0.0418179  
H159     H      0.690360000000     0.284620000000     0.197170000000     0.0395704  
H160     H      0.756880000000     0.154960000000     0.468170000000     0.0400506  
H161     H      0.738080000000     0.464950000000     0.990820000000     0.0415232  
H162     H      0.689390000000     0.541710000000     0.935920000000     0.035704   
H163     H      0.711980000000     0.538220000000     0.071090000000     0.0401481  
H164     H      0.676100000000     0.399400000000     0.967680000000     0.0384914  
H165     H      0.711430000000     0.577450000000     0.947380000000     0.0375533  
H166     H      0.705920000000     0.440720000000     0.078360000000     0.0357903  
H167     H      0.695290000000     0.433760000000     0.938840000000     0.0356718  
H168     H      0.715030000000     0.397190000000     0.083610000000     0.0443034  
H169     H      0.740250000000     0.507930000000     0.987500000000     0.0453248  
H170     H      0.679380000000     0.584410000000     0.945020000000     0.0439157  
H171     H      0.660460000000     0.469060000000     0.018430000000     0.0453302  
H172     H      0.667800000000     0.548040000000     0.979790000000     0.0377394  
H173     H      0.705110000000     0.390190000000     0.945850000000     0.0431954  
H174     H      0.726330000000     0.575810000000     0.049760000000     0.0311259  
H175     H      0.730580000000     0.430700000000     0.043230000000     0.0378586  
H176     H      0.724600000000     0.426860000000     0.963910000000     0.0373324  
H177     H      0.662610000000     0.511850000000     0.015790000000     0.0410107  
H178     H      0.680480000000     0.544590000000     0.056980000000     0.0428211  
H179     H      0.683690000000     0.404900000000     0.072360000000     0.0392126  
H180     H      0.712630000000     0.595510000000     0.124350000000     0.0420134  
H181     H      0.251330000000     0.729310000000     0.664080000000     0.0413939  
H182     H      0.319950000000     0.724010000000     0.783770000000     0.0359083  
H183     H      0.249160000000     0.710260000000     0.835590000000     0.0400969  
H184     H      0.254110000000     0.815950000000     0.620640000000     0.039628   
H185     H      0.323750000000     0.686870000000     0.820710000000     0.0389701  
H186     H      0.206430000000     0.767900000000     0.688330000000     0.0357263  
H187     H      0.278530000000     0.782650000000     0.642770000000     0.0357818  
H188     H      0.188850000000     0.784480000000     0.616880000000     0.0440797  
H189     H      0.268610000000     0.703540000000     0.722200000000     0.0452794  
H190     H      0.339170000000     0.708440000000     0.853800000000     0.0461767  
H191     H      0.257980000000     0.788260000000     0.752790000000     0.0455494  
H192     H      0.309850000000     0.738470000000     0.833890000000     0.0384171  
H193     H      0.261150000000     0.799440000000     0.571440000000     0.0436983  
H194     H      0.271920000000     0.678090000000     0.864280000000     0.0295264  
H195     H      0.217650000000     0.753960000000     0.638420000000     0.0378016  
H196     H      0.259380000000     0.762530000000     0.612040000000     0.0379955  
H197     H      0.275470000000     0.762680000000     0.810600000000     0.0412165  
H198     H      0.268660000000     0.731750000000     0.861520000000     0.0425256  
H199     H      0.203600000000     0.805550000000     0.652280000000     0.0389323  
H200     H      0.251770000000     0.679940000000     0.943370000000     0.0388279  
H201     H      0.304710000000     0.717340000000     0.239100000000     0.0413892  
H202     H      0.260450000000     0.790670000000     0.291240000000     0.0358464  
H203     H      0.225270000000     0.729770000000     0.340010000000     0.0399598  
H204     H      0.290650000000     0.724020000000     0.069910000000     0.0396423  
H205     H      0.258470000000     0.796320000000     0.370280000000     0.0388308  
H206     H      0.270940000000     0.679290000000     0.180790000000     0.035942   
H207     H      0.297060000000     0.745490000000     0.137690000000     0.0357331  
H208     H      0.297430000000     0.659620000000     0.122540000000     0.0452017  
H209     H      0.289160000000     0.736690000000     0.306570000000     0.0452637  
H210     H      0.236330000000     0.815230000000     0.344370000000     0.0455665  
H211     H      0.237140000000     0.733880000000     0.170110000000     0.0455938  
H212     H      0.227590000000     0.787450000000     0.285970000000     0.0384902  
H213     H      0.323180000000     0.725670000000     0.079370000000     0.0432177  
H214     H      0.228650000000     0.752010000000     0.406250000000     0.0294912  
H215     H      0.303270000000     0.686070000000     0.184610000000     0.0375743  
H216     H      0.318260000000     0.724070000000     0.159800000000     0.0377317  
H217     H      0.221760000000     0.753500000000     0.237010000000     0.0412415  
H218     H      0.207930000000     0.751850000000     0.310770000000     0.0423839  
H219     H      0.272070000000     0.676260000000     0.100940000000     0.0399305  
H220     H      0.184230000000     0.742270000000     0.433210000000     0.0380942  
H221     H      0.543540000000     0.647980000000     0.979050000000     0.0416872  
H222     H      0.460200000000     0.642450000000     0.067370000000     0.0356533  
H223     H      0.464800000000     0.697970000000     0.974080000000     0.0402885  
H224     H      0.606410000000     0.667290000000     0.100000000000     0.0374539  
H225     H      0.424980000000     0.635370000000     0.023230000000     0.0392209  
H226     H      0.570920000000     0.701240000000     0.991130000000     0.0359784  
H227     H      0.569720000000     0.644880000000     0.083810000000     0.0356171  
H228     H      0.616580000000     0.696410000000     0.981990000000     0.0456366  
H229     H      0.498740000000     0.645450000000     0.969370000000     0.0456781  
H230     H      0.413770000000     0.649590000000     0.072060000000     0.040871   
H231     H      0.533610000000     0.695960000000     0.088340000000     0.0452033  
H232     H      0.450720000000     0.671590000000     0.082180000000     0.0367418  
H233     H      0.615310000000     0.639850000000     0.075840000000     0.0442483  
H234     H      0.427370000000     0.682100000000     0.950800000000     0.03321    
H235     H      0.579890000000     0.672420000000     0.972850000000     0.0387044  
H236     H      0.579260000000     0.639470000000     0.027110000000     0.0385133  
H237     H      0.488870000000     0.693330000000     0.078930000000     0.0408739  
H238     H      0.455000000000     0.703020000000     0.030440000000     0.0417938  
H239     H      0.607370000000     0.705400000000     0.036860000000     0.038294   
H240     H      0.403860000000     0.721710000000     0.946480000000     0.0424403  
H241     H      0.287610000000     0.279110000000     0.722250000000     0.0415479  
H242     H      0.273300000000     0.199710000000     0.644020000000     0.0358857  
H243     H      0.208900000000     0.240940000000     0.651590000000     0.0400249  
H244     H      0.311290000000     0.252570000000     0.879750000000     0.0383144  
H245     H      0.259300000000     0.202050000000     0.568460000000     0.0379021  
H246     H      0.251760000000     0.287420000000     0.813000000000     0.0357539  
H247     H      0.314270000000     0.243510000000     0.801430000000     0.0357759  
H248     H      0.274450000000     0.312490000000     0.868710000000     0.0440147  
H249     H      0.270910000000     0.261650000000     0.653610000000     0.0453071  
H250     H      0.252480000000     0.173280000000     0.588720000000     0.0457334  
H251     H      0.252680000000     0.225100000000     0.800470000000     0.0453844  
H252     H      0.244910000000     0.187000000000     0.663310000000     0.0382902  
H253     H      0.337010000000     0.268320000000     0.857290000000     0.0452415  
H254     H      0.208440000000     0.230820000000     0.575160000000     0.0299459  
H255     H      0.280270000000     0.299390000000     0.792410000000     0.0382196  
H256     H      0.316470000000     0.273970000000     0.785790000000     0.0382906  
H257     H      0.236160000000     0.207560000000     0.732080000000     0.0412014  
H258     H      0.208790000000     0.211050000000     0.670630000000     0.0424087  
H259     H      0.267660000000     0.283400000000     0.887830000000     0.0374521  
H260     H      0.161440000000     0.221540000000     0.573220000000     0.0389281  
H261     H      0.305680000000     0.273560000000     0.229050000000     0.0415314  
H262     H      0.223350000000     0.248690000000     0.310090000000     0.0358437  
H263     H      0.274810000000     0.194510000000     0.288060000000     0.0401357  
H264     H      0.273940000000     0.302050000000     0.077900000000     0.0391673  
H265     H      0.228890000000     0.231560000000     0.382320000000     0.0374195  
H266     H      0.313380000000     0.242310000000     0.133130000000     0.0356748  
H267     H      0.267840000000     0.301090000000     0.156970000000     0.0359295  
H268     H      0.337970000000     0.266320000000     0.077570000000     0.043255   
H269     H      0.289740000000     0.253600000000     0.295890000000     0.0452521  
H270     H      0.199600000000     0.222210000000     0.361710000000     0.0449876  
H271     H      0.249430000000     0.240800000000     0.148970000000     0.0455094  
H272     H      0.213560000000     0.221430000000     0.285640000000     0.0380143  
H273     H      0.292820000000     0.324640000000     0.101210000000     0.0453241  
H274     H      0.265910000000     0.188850000000     0.364600000000     0.030197   
H275     H      0.326330000000     0.268920000000     0.155270000000     0.0377592  
H276     H      0.300340000000     0.302500000000     0.168850000000     0.0377544  
H277     H      0.233590000000     0.220780000000     0.215390000000     0.0411078  
H278     H      0.243340000000     0.191250000000     0.270500000000     0.0426117  
H279     H      0.307380000000     0.258850000000     0.060400000000     0.0382886  
H280     H      0.262620000000     0.143200000000     0.359260000000     0.0413681  
H281     H      0.541450000000     0.289240000000     0.021260000000     0.0416633  
H282     H      0.460640000000     0.335870000000     0.059100000000     0.0357982  
H283     H      0.469360000000     0.317880000000     0.923250000000     0.0402153  
H284     H      0.608140000000     0.348900000000     0.059920000000     0.0381568  
H285     H      0.423360000000     0.315930000000     0.042860000000     0.0396747  
H286     H      0.575410000000     0.316920000000     0.942700000000     0.03579    
H287     H      0.569340000000     0.332350000000     0.080520000000     0.0356994  
H288     H      0.620510000000     0.307130000000     0.954160000000     0.0440969  
H289     H      0.496410000000     0.288070000000     0.013800000000     0.0456722  
H290     H      0.416140000000     0.346440000000     0.043350000000     0.0422715  
H291     H      0.540760000000     0.363090000000     0.991130000000     0.0453108  
H292     H      0.455850000000     0.357410000000     0.015830000000     0.0371369  
H293     H      0.614470000000     0.322680000000     0.090950000000     0.0442334  
H294     H      0.429090000000     0.304320000000     0.934910000000     0.0325862  
H295     H      0.581420000000     0.294540000000     0.983950000000     0.037957   
H296     H      0.578010000000     0.303380000000     0.062780000000     0.0380111  
H297     H      0.495880000000     0.362010000000     0.983790000000     0.0408666  
H298     H      0.462530000000     0.347460000000     0.939200000000     0.0420257  
H299     H      0.612670000000     0.337470000000     0.959200000000     0.0386157  
H300     H      0.411720000000     0.321920000000     0.860770000000     0.0407864  
H301     H      0.361860000000     0.518510000000     0.971320000000     0.0415789  
H302     H      0.310300000000     0.446120000000     0.996070000000     0.0361469  
H303     H      0.348030000000     0.441370000000     0.873300000000     0.0400435  
H304     H      0.293460000000     0.579940000000     0.957820000000     0.0382358  
H305     H      0.331920000000     0.410800000000     0.006160000000     0.0414739  
H306     H      0.350550000000     0.550280000000     0.879890000000     0.0357029  
H307     H      0.303850000000     0.542900000000     0.992250000000     0.035905   
H308     H      0.356560000000     0.593040000000     0.897830000000     0.04321    
H309     H      0.364550000000     0.475600000000     0.972450000000     0.0456087  
H310     H      0.301410000000     0.402230000000     0.991320000000     0.0433534  
H311     H      0.294870000000     0.514320000000     0.894220000000     0.0452555  
H312     H      0.294820000000     0.436330000000     0.946270000000     0.0376051  
H313     H      0.308890000000     0.585420000000     0.009880000000     0.0466767  
H314     H      0.359380000000     0.404980000000     0.901380000000     0.031501   
H315     H      0.362780000000     0.555600000000     0.935020000000     0.0379945  
H316     H      0.335490000000     0.551420000000     0.000510000000     0.0389807  
H317     H      0.297220000000     0.471480000000     0.896220000000     0.0410734  
H318     H      0.315610000000     0.435900000000     0.876630000000     0.0415665  
H319     H      0.325790000000     0.585360000000     0.881580000000     0.0374699  
H320     H      0.347570000000     0.380250000000     0.831970000000     0.0396869  
In1      In     0.340970000000     0.327450000000     0.967950000000     2.41089    
In2      In     0.340030000000     0.661210000000     0.983540000000     2.40783    
In3      In     0.696080000000     0.319710000000     0.033040000000     2.40679    
In4      In     0.692390000000     0.658460000000     0.012720000000     2.40409    
In5      In     0.842430000000     0.158990000000     0.535250000000     2.41186    
In6      In     0.839390000000     0.820770000000     0.514970000000     2.41551    
In7      In     0.195360000000     0.827140000000     0.481140000000     2.40608    
In8      In     0.196650000000     0.160670000000     0.469160000000     2.41106    
N1       N      0.214610000000     0.091730000000     0.459990000000    -0.170997   
N2       N      0.213870000000     0.042870000000     0.463460000000    -0.110772   
N3       N      0.225330000000     0.943570000000     0.462400000000    -0.113446   
N4       N      0.217350000000     0.894920000000     0.467840000000    -0.168722   
N5       N      0.914010000000     0.821110000000     0.500910000000    -0.172444   
N6       N      0.966060000000     0.818310000000     0.498960000000    -0.111507   
N7       N      0.068980000000     0.834380000000     0.477960000000    -0.113373   
N8       N      0.120690000000     0.832470000000     0.478070000000    -0.169281   
N9       N      0.826580000000     0.891070000000     0.520450000000    -0.172576   
N10      N      0.820230000000     0.940540000000     0.518820000000    -0.111996   
N11      N      0.837440000000     0.039080000000     0.523340000000    -0.11314    
N12      N      0.836320000000     0.088170000000     0.527680000000    -0.168157   
N13      N      0.916930000000     0.159370000000     0.520400000000    -0.172089   
N14      N      0.968390000000     0.164010000000     0.508430000000    -0.111478   
N15      N      0.070750000000     0.149770000000     0.477070000000    -0.113367   
N16      N      0.122340000000     0.152860000000     0.472580000000    -0.168753   
N17      N      0.811560000000     0.782300000000     0.617990000000    -0.172807   
N18      N      0.793350000000     0.760030000000     0.695650000000    -0.111293   
N19      N      0.753580000000     0.697870000000     0.826480000000    -0.113447   
N20      N      0.729070000000     0.678260000000     0.900450000000    -0.169044   
N21      N      0.804480000000     0.786990000000     0.413500000000    -0.171185   
N22      N      0.786840000000     0.767090000000     0.333550000000    -0.111099   
N23      N      0.736670000000     0.718650000000     0.194060000000    -0.113142   
N24      N      0.720960000000     0.694970000000     0.117020000000    -0.167971   
N25      N      0.817040000000     0.186890000000     0.651290000000    -0.171236   
N26      N      0.795380000000     0.212770000000     0.720800000000    -0.111256   
N27      N      0.761310000000     0.253410000000     0.883120000000    -0.113477   
N28      N      0.736180000000     0.279300000000     0.948560000000    -0.168809   
N29      N      0.803020000000     0.197900000000     0.445900000000    -0.171878   
N30      N      0.783560000000     0.219630000000     0.369250000000    -0.110861   
N31      N      0.735960000000     0.273490000000     0.233160000000    -0.113285   
N32      N      0.718940000000     0.293170000000     0.152370000000    -0.167665   
N33      N      0.696460000000     0.587240000000     0.009660000000    -0.171487   
N34      N      0.704010000000     0.538360000000     0.001630000000    -0.111511   
N35      N      0.696980000000     0.438800000000     0.009150000000    -0.113011   
N36      N      0.702180000000     0.390160000000     0.017220000000    -0.167909   
N37      N      0.305380000000     0.694990000000     0.880830000000    -0.172055   
N38      N      0.283560000000     0.715380000000     0.803850000000    -0.111619   
N39      N      0.243310000000     0.776560000000     0.671310000000    -0.113231   
N40      N      0.223670000000     0.797680000000     0.593970000000    -0.168613   
N41      N      0.221590000000     0.786030000000     0.381010000000    -0.171825   
N42      N      0.246330000000     0.758570000000     0.316730000000    -0.111521   
N43      N      0.280490000000     0.713590000000     0.158860000000    -0.113118   
N44      N      0.306710000000     0.691920000000     0.089680000000    -0.168203   
N45      N      0.412790000000     0.670090000000     0.012180000000    -0.172267   
N46      N      0.464250000000     0.667720000000     0.015490000000    -0.110838   
N47      N      0.568070000000     0.674630000000     0.040870000000    -0.113451   
N48      N      0.619530000000     0.670320000000     0.033890000000    -0.168949   
N49      N      0.221380000000     0.195910000000     0.578700000000    -0.172007   
N50      N      0.243180000000     0.223450000000     0.646380000000    -0.111508   
N51      N      0.280940000000     0.262740000000     0.807630000000    -0.113355   
N52      N      0.305250000000     0.288980000000     0.873740000000    -0.169104   
N53      N      0.227650000000     0.195780000000     0.364650000000    -0.172418   
N54      N      0.252050000000     0.223910000000     0.300670000000    -0.111484   
N55      N      0.287480000000     0.269660000000     0.143780000000    -0.113109   
N56      N      0.311980000000     0.294580000000     0.076340000000    -0.167739   
N57      N      0.415590000000     0.330130000000     0.979020000000    -0.172041   
N58      N      0.466360000000     0.323330000000     0.993120000000    -0.111042   
N59      N      0.570800000000     0.327860000000     0.010050000000    -0.113154   
N60      N      0.621640000000     0.321120000000     0.020560000000    -0.168266   
N61      N      0.328650000000     0.396420000000     0.941360000000    -0.171067   
N62      N      0.332820000000     0.445140000000     0.938050000000    -0.110766   
N63      N      0.325110000000     0.544680000000     0.932750000000    -0.113397   
N64      N      0.329600000000     0.592910000000     0.950270000000    -0.168636   
O1       O      0.315990000000     0.326290000000     0.029020000000    -0.493623   
O2       O      0.338800000000     0.296770000000     0.016970000000    -0.506653   
O3       O      0.307850000000     0.319810000000     0.923010000000    -0.510239   
O4       O      0.325920000000     0.363460000000     0.985980000000    -0.493858   
O5       O      0.376350000000     0.334260000000     0.007440000000    -0.510152   
O6       O      0.343690000000     0.359800000000     0.923310000000    -0.506136   
O7       O      0.339010000000     0.297640000000     0.917430000000    -0.498828   
O8       O      0.379550000000     0.322450000000     0.940570000000    -0.50011    
O9       O      0.305550000000     0.672250000000     0.945120000000    -0.509095   
O10      O      0.340060000000     0.682230000000     0.918540000000    -0.494594   
O11      O      0.318040000000     0.659720000000     0.048350000000    -0.492271   
O12      O      0.323720000000     0.625020000000     0.995270000000    -0.497673   
O13      O      0.377290000000     0.678390000000     0.972640000000    -0.498255   
O14      O      0.347170000000     0.629270000000     0.939260000000    -0.509125   
O15      O      0.330600000000     0.693000000000     0.026250000000    -0.508275   
O16      O      0.375150000000     0.652050000000     0.022600000000    -0.510613   
O17      O      0.692950000000     0.294020000000     0.091320000000    -0.500765   
O18      O      0.722610000000     0.318290000000     0.092250000000    -0.498158   
O19      O      0.702030000000     0.286710000000     0.991670000000    -0.505013   
O20      O      0.660630000000     0.315200000000     0.992690000000    -0.499552   
O21      O      0.702820000000     0.356470000000     0.059810000000    -0.498552   
O22      O      0.657470000000     0.323360000000     0.061660000000    -0.503008   
O23      O      0.729730000000     0.312910000000     0.989400000000    -0.506669   
O24      O      0.698220000000     0.352680000000     0.989650000000    -0.50203    
O25      O      0.716690000000     0.661630000000     0.074600000000    -0.491898   
O26      O      0.698160000000     0.692270000000     0.052090000000    -0.506709   
O27      O      0.727670000000     0.666840000000     0.974420000000    -0.511839   
O28      O      0.687090000000     0.623170000000     0.978020000000    -0.506411   
O29      O      0.656440000000     0.678150000000     0.999080000000    -0.49493    
O30      O      0.702860000000     0.623230000000     0.042930000000    -0.491724   
O31      O      0.693690000000     0.670170000000     0.939780000000    -0.500021   
O32      O      0.655700000000     0.650270000000     0.046130000000    -0.510631   
O33      O      0.836260000000     0.191740000000     0.492760000000    -0.505579   
O34      O      0.809620000000     0.164640000000     0.488660000000    -0.503715   
O35      O      0.814320000000     0.161610000000     0.591250000000    -0.501915   
O36      O      0.838000000000     0.122830000000     0.566700000000    -0.501122   
O37      O      0.877240000000     0.163150000000     0.493380000000    -0.502652   
O38      O      0.838630000000     0.124950000000     0.495820000000    -0.501359   
O39      O      0.844950000000     0.184650000000     0.593430000000    -0.500759   
O40      O      0.881500000000     0.156920000000     0.562810000000    -0.502615   
O41      O      0.832870000000     0.788950000000     0.471090000000    -0.501574   
O42      O      0.812210000000     0.819670000000     0.456670000000    -0.498159   
O43      O      0.843810000000     0.797340000000     0.576740000000    -0.505526   
O44      O      0.878290000000     0.828770000000     0.539850000000    -0.505701   
O45      O      0.836670000000     0.857050000000     0.483220000000    -0.504968   
O46      O      0.874570000000     0.811830000000     0.477400000000    -0.50227    
O47      O      0.807770000000     0.807670000000     0.557980000000    -0.509061   
O48      O      0.827870000000     0.853880000000     0.551820000000    -0.506461   
O49      O      0.191380000000     0.807950000000     0.547730000000    -0.504521   
O50      O      0.227520000000     0.816040000000     0.525610000000    -0.504211   
O51      O      0.199780000000     0.791790000000     0.446500000000    -0.502023   
O52      O      0.157740000000     0.819820000000     0.449760000000    -0.50575    
O53      O      0.212640000000     0.860760000000     0.508260000000    -0.501737   
O54      O      0.158630000000     0.838940000000     0.510380000000    -0.504991   
O55      O      0.217530000000     0.821250000000     0.417820000000    -0.501999   
O56      O      0.199420000000     0.861110000000     0.441430000000    -0.5003     
O57      O      0.198430000000     0.191430000000     0.419970000000    -0.502071   
O58      O      0.226280000000     0.165590000000     0.416280000000    -0.507223   
O59      O      0.193200000000     0.189220000000     0.521960000000    -0.506677   
O60      O      0.160980000000     0.150700000000     0.504270000000    -0.508498   
O61      O      0.198670000000     0.126200000000     0.431350000000    -0.50342    
O62      O      0.158390000000     0.163760000000     0.437850000000    -0.501033   
O63      O      0.225130000000     0.167970000000     0.523560000000    -0.500766   
O64      O      0.212060000000     0.126690000000     0.498180000000    -0.494488   
S1       S      0.223390000000     0.092900000000     0.370890000000    -0.0342188  
S2       S      0.910490000000     0.816390000000     0.409820000000    -0.0322351  
S3       S      0.833240000000     0.890880000000     0.612060000000    -0.029841   
S4       S      0.923000000000     0.131700000000     0.594800000000    -0.0335792  
S5       S      0.768740000000     0.774840000000     0.571890000000    -0.0333882  
S6       S      0.809800000000     0.744390000000     0.453890000000    -0.0339889  
S7       S      0.793220000000     0.146740000000     0.675130000000    -0.0291035  
S8       S      0.759040000000     0.178860000000     0.469120000000    -0.0362925  
S9       S      0.694210000000     0.584590000000     0.101030000000    -0.0281618  
S10      S      0.263160000000     0.700130000000     0.929770000000    -0.0317244  
S11      S      0.185520000000     0.753080000000     0.392330000000    -0.0284214  
S12      S      0.412770000000     0.716020000000     0.988010000000    -0.0337335  
S13      S      0.174820000000     0.208540000000     0.603260000000    -0.0307361  
S14      S      0.247320000000     0.155410000000     0.331130000000    -0.0310513  
S15      S      0.421530000000     0.337960000000     0.889740000000    -0.0322899  
S16      S      0.328420000000     0.392070000000     0.851150000000    -0.0347954  


