data_structure

_audit_creation_method RASPA-1.0
_audit_creation_date 2023-6-5
_audit_author_name 'Poobodin Mano'

_cell_length_a    56.1617
_cell_length_b    55.4664
_cell_length_c    29.9358
_cell_angle_alpha 89.775
_cell_angle_beta  90.225
_cell_angle_gamma 89.9997
_cell_volume      93251.2

_symmetry_cell_setting          triclinic
_symmetry_space_group_name_Hall 'P 1'
_symmetry_space_group_name_H-M  'P 1'
_symmetry_Int_Tables_number     1

_symmetry_equiv_pos_as_xyz 'x,y,z'

loop_
_atom_site_label
_atom_site_type_symbol
_atom_site_fract_x
_atom_site_fract_y
_atom_site_fract_z
_atom_site_charge
Br1      Br     0.168230000000     0.105400000000     0.389670000000    -0.210935   
Br2      Br     0.902520000000     0.824380000000     0.407050000000    -0.21885    
Br3      Br     0.858240000000     0.102380000000     0.433780000000    -0.221575   
Br4      Br     0.897520000000     0.153390000000     0.598810000000    -0.219537   
Br5      Br     0.748460000000     0.792780000000     0.541660000000    -0.227757   
Br6      Br     0.791550000000     0.852060000000     0.349050000000    -0.215226   
Br7      Br     0.763500000000     0.166940000000     0.619480000000    -0.217453   
Br8      Br     0.689800000000     0.253840000000     0.072860000000    -0.224629   
Br9      Br     0.649360000000     0.407460000000     0.914680000000    -0.225396   
Br10     Br     0.301380000000     0.666730000000     0.850630000000    -0.196551   
Br11     Br     0.319350000000     0.759670000000     0.088420000000    -0.2175     
Br12     Br     0.400250000000     0.729030000000     0.938320000000    -0.219435   
Br13     Br     0.223810000000     0.166080000000     0.630110000000    -0.219461   
Br14     Br     0.223880000000     0.163070000000     0.360990000000    -0.208654   
Br15     Br     0.599040000000     0.346550000000     0.097930000000    -0.222263   
Br16     Br     0.288660000000     0.613040000000     0.932460000000    -0.200097   
C1       C      0.319480000000     0.381650000000     0.003320000000     0.398422   
C2       C      0.312180000000     0.313730000000     0.915450000000     0.403407   
C3       C      0.373910000000     0.331100000000     0.995630000000     0.407204   
C4       C      0.300180000000     0.310400000000     0.056810000000     0.405844   
C5       C      0.324540000000     0.633720000000     0.007040000000     0.417634   
C6       C      0.309320000000     0.702980000000     0.074960000000     0.418551   
C7       C      0.379480000000     0.689910000000     0.007630000000     0.416956   
C8       C      0.314530000000     0.703110000000     0.930470000000     0.421592   
C9       C      0.623360000000     0.330920000000     0.005210000000     0.415775   
C10      C      0.693390000000     0.311480000000     0.934590000000     0.406885   
C11      C      0.673270000000     0.382920000000     0.001160000000     0.414881   
C12      C      0.694540000000     0.311630000000     0.070000000000     0.413174   
C13      C      0.663380000000     0.634450000000     0.002590000000     0.406652   
C14      C      0.690160000000     0.689810000000     0.914900000000     0.401604   
C15      C      0.625750000000     0.699410000000     0.012770000000     0.401704   
C16      C      0.699690000000     0.707610000000     0.049730000000     0.407424   
C17      C      0.824900000000     0.129000000000     0.505260000000     0.416756   
C18      C      0.802800000000     0.199750000000     0.570450000000     0.416232   
C19      C      0.875330000000     0.180550000000     0.513140000000     0.417809   
C20      C      0.808560000000     0.199120000000     0.431500000000     0.404777   
C21      C      0.875930000000     0.823680000000     0.502040000000     0.41568    
C22      C      0.804370000000     0.801810000000     0.559140000000     0.416353   
C23      C      0.825610000000     0.876710000000     0.503610000000     0.408476   
C24      C      0.808930000000     0.811910000000     0.420070000000     0.419383   
C25      C      0.124760000000     0.833230000000     0.509080000000     0.40554    
C26      C      0.194670000000     0.810710000000     0.437750000000     0.403625   
C27      C      0.184480000000     0.880160000000     0.492400000000     0.406479   
C28      C      0.188500000000     0.810330000000     0.580220000000     0.402629   
C29      C      0.124470000000     0.179070000000     0.504100000000     0.405106   
C30      C      0.192300000000     0.200140000000     0.565990000000     0.414936   
C31      C      0.182020000000     0.129980000000     0.484120000000     0.417801   
C32      C      0.192350000000     0.198020000000     0.422660000000     0.416143   
C33      C      0.210730000000     0.068910000000     0.497720000000    -0.032041   
C34      C      0.175760000000     0.943390000000     0.459330000000    -0.0308512  
C35      C      0.210900000000     0.914710000000     0.508000000000    -0.00490886 
C36      C      0.179500000000     0.916970000000     0.447050000000    -0.00493885 
C37      C      0.210490000000     0.994150000000     0.453740000000    -0.0510004  
C38      C      0.178760000000     0.015370000000     0.513680000000    -0.0514441  
C39      C      0.196590000000     0.979470000000     0.481460000000     0.0632669  
C40      C      0.206000000000     0.941350000000     0.517650000000    -0.0310116  
C41      C      0.192400000000     0.030050000000     0.485480000000     0.0635193  
C42      C      0.178820000000     0.065000000000     0.444610000000    -0.0632013  
C43      C      0.208470000000     0.019220000000     0.455600000000    -0.0540307  
C44      C      0.170930000000     0.091370000000     0.449570000000     0.119627   
C45      C      0.204730000000     0.095030000000     0.508810000000    -0.000202211
C46      C      0.180780000000     0.990280000000     0.511800000000    -0.0542408  
C47      C      0.937330000000     0.832500000000     0.546020000000    -0.0324187  
C48      C      0.061820000000     0.823320000000     0.474570000000    -0.0308177  
C49      C      0.088280000000     0.841950000000     0.551150000000    -0.00477926 
C50      C      0.087000000000     0.832990000000     0.467550000000    -0.00465105 
C51      C      0.009370000000     0.850510000000     0.505510000000    -0.0519037  
C52      C      0.991620000000     0.804360000000     0.523330000000    -0.0518522  
C53      C      0.025240000000     0.831560000000     0.513890000000     0.0631055  
C54      C      0.062950000000     0.831880000000     0.553850000000    -0.0309029  
C55      C      0.975720000000     0.823270000000     0.514470000000     0.0625903  
C56      C      0.940600000000     0.821930000000     0.468100000000    -0.0624429  
C57      C      0.984840000000     0.846490000000     0.505740000000    -0.0540353  
C58      C      0.914530000000     0.813560000000     0.465420000000     0.117235   
C59      C      0.911690000000     0.823610000000     0.548590000000    -0.00307136 
C60      C      0.016200000000     0.808390000000     0.523080000000    -0.0548777  
C61      C      0.819060000000     0.066200000000     0.549850000000    -0.0317797  
C62      C      0.829020000000     0.941610000000     0.471220000000    -0.0305389  
C63      C      0.818520000000     0.912380000000     0.550080000000    -0.00360697 
C64      C      0.838270000000     0.915740000000     0.473390000000    -0.00416348 
C65      C      0.842570000000     0.992210000000     0.531870000000    -0.0509057  
C66      C      0.801170000000     0.013010000000     0.496600000000    -0.0502883  
C67      C      0.824270000000     0.977340000000     0.516110000000     0.0641744  
C68      C      0.810460000000     0.938560000000     0.543830000000    -0.0310109  
C69      C      0.819640000000     0.027910000000     0.511780000000     0.0637138  
C70      C      0.834800000000     0.063460000000     0.475260000000    -0.0626626  
C71      C      0.840370000000     0.017260000000     0.529770000000    -0.0535119  
C72      C      0.830060000000     0.090230000000     0.465170000000     0.118763   
C73      C      0.812040000000     0.092570000000     0.543930000000    -0.00279834 
C74      C      0.803390000000     0.987910000000     0.498690000000    -0.0539393  
C75      C      0.938980000000     0.182510000000     0.478400000000    -0.0327099  
C76      C      0.063580000000     0.179980000000     0.554480000000    -0.0307066  
C77      C      0.085720000000     0.179510000000     0.466320000000    -0.0048772  
C78      C      0.089280000000     0.171090000000     0.550280000000    -0.00479234 
C79      C      0.010120000000     0.158260000000     0.510030000000    -0.0511023  
C80      C      0.990250000000     0.203260000000     0.529210000000    -0.0517222  
C81      C      0.025100000000     0.178010000000     0.517460000000     0.0635627  
C82      C      0.060360000000     0.188130000000     0.475230000000    -0.0303776  
C83      C      0.975250000000     0.183520000000     0.521410000000     0.0630971  
C84      C      0.938250000000     0.172270000000     0.556770000000    -0.0627874  
C85      C      0.985430000000     0.160900000000     0.511890000000    -0.0537788  
C86      C      0.911660000000     0.178550000000     0.561100000000     0.118314   
C87      C      0.913140000000     0.190850000000     0.478390000000    -0.00170196 
C88      C      0.015000000000     0.200620000000     0.527220000000    -0.054699   
C89      C      0.792760000000     0.755780000000     0.648820000000    -0.0327696  
C90      C      0.700040000000     0.720160000000     0.807950000000    -0.0306696  
C91      C      0.724890000000     0.685610000000     0.865130000000    -0.00546525 
C92      C      0.685810000000     0.702180000000     0.836010000000    -0.0055476  
C93      C      0.739370000000     0.715000000000     0.720830000000    -0.05193    
C94      C      0.755490000000     0.761380000000     0.741330000000    -0.0517392  
C95      C      0.735690000000     0.724240000000     0.763700000000     0.0629087  
C96      C      0.737700000000     0.704150000000     0.835780000000    -0.0308641  
C97      C      0.759160000000     0.752150000000     0.698410000000     0.0627021  
C98      C      0.755100000000     0.773320000000     0.628230000000    -0.0627157  
C99      C      0.750960000000     0.728770000000     0.688350000000    -0.0543357  
C100     C      0.766610000000     0.792370000000     0.597700000000     0.118392   
C101     C      0.807060000000     0.774210000000     0.622220000000    -0.00114456 
C102     C      0.743830000000     0.747620000000     0.773780000000    -0.0546352  
C103     C      0.797640000000     0.771770000000     0.321690000000    -0.0319431  
C104     C      0.718240000000     0.754520000000     0.128800000000    -0.0309655  
C105     C      0.735840000000     0.708250000000     0.096800000000    -0.00496069 
C106     C      0.712720000000     0.746580000000     0.080950000000    -0.00492907 
C107     C      0.770500000000     0.766930000000     0.186620000000    -0.0512154  
C108     C      0.744770000000     0.760230000000     0.265510000000    -0.0516237  
C109     C      0.749100000000     0.754000000000     0.185510000000     0.0630482  
C110     C      0.740390000000     0.717650000000     0.144020000000    -0.0308272  
C111     C      0.766230000000     0.773080000000     0.266670000000     0.0637003  
C112     C      0.776250000000     0.808760000000     0.308790000000    -0.0622149  
C113     C      0.779060000000     0.776420000000     0.226740000000    -0.0543262  
C114     C      0.781630000000     0.818380000000     0.355900000000     0.11856    
C115     C      0.803210000000     0.777910000000     0.370170000000    -0.00119979 
C116     C      0.736200000000     0.750730000000     0.225340000000    -0.0541092  
C117     C      0.791320000000     0.240420000000     0.666840000000    -0.0324759  
C118     C      0.703300000000     0.270170000000     0.838780000000    -0.0302748  
C119     C      0.729190000000     0.307090000000     0.888460000000    -0.00417247 
C120     C      0.695960000000     0.275690000000     0.886800000000    -0.00486847 
C121     C      0.754910000000     0.246700000000     0.793360000000    -0.0512441  
C122     C      0.739460000000     0.264630000000     0.710730000000    -0.0511911  
C123     C      0.737970000000     0.265190000000     0.791960000000     0.0639643  
C124     C      0.734840000000     0.299970000000     0.840340000000    -0.0305994  
C125     C      0.756430000000     0.246110000000     0.712120000000     0.0629725  
C126     C      0.759610000000     0.211110000000     0.664880000000    -0.0626594  
C127     C      0.764110000000     0.237200000000     0.753920000000    -0.0536077  
C128     C      0.766610000000     0.202170000000     0.618150000000     0.117947   
C129     C      0.799350000000     0.234440000000     0.619630000000    -0.00231523 
C130     C      0.730260000000     0.274150000000     0.750260000000    -0.0546855  
C131     C      0.741100000000     0.298350000000     0.156870000000    -0.0323707  
C132     C      0.767080000000     0.211960000000     0.337220000000    -0.0305661  
C133     C      0.810560000000     0.231860000000     0.376070000000    -0.00457294 
C134     C      0.783450000000     0.195470000000     0.364500000000    -0.00501318 
C135     C      0.774350000000     0.242400000000     0.237360000000    -0.051473   
C136     C      0.734800000000     0.270220000000     0.260660000000    -0.0512991  
C137     C      0.767680000000     0.244020000000     0.282250000000     0.063581   
C138     C      0.792820000000     0.246520000000     0.348140000000    -0.0307456  
C139     C      0.741380000000     0.268480000000     0.215690000000     0.0631254  
C140     C      0.715610000000     0.263580000000     0.151770000000    -0.0624694  
C141     C      0.761380000000     0.254470000000     0.204270000000    -0.0539208  
C142     C      0.697690000000     0.276440000000     0.120890000000     0.118026   
C143     C      0.724450000000     0.314040000000     0.128840000000    -0.00186455 
C144     C      0.747800000000     0.258120000000     0.293790000000    -0.054421   
C145     C      0.671330000000     0.445820000000     0.044380000000    -0.0322891  
C146     C      0.659670000000     0.571050000000     0.966840000000    -0.0310062  
C147     C      0.661740000000     0.598110000000     0.050140000000    -0.00506173 
C148     C      0.649510000000     0.596610000000     0.968440000000    -0.00480491 
C149     C      0.644390000000     0.517640000000     0.017600000000    -0.0517919  
C150     C      0.690040000000     0.500640000000     0.997920000000    -0.0520633  
C151     C      0.662760000000     0.534120000000     0.009600000000     0.0628978  
C152     C      0.671300000000     0.572440000000     0.045090000000    -0.0308431  
C153     C      0.671640000000     0.484140000000     0.005880000000     0.0627621  
C154     C      0.663820000000     0.447630000000     0.965010000000    -0.0626285  
C155     C      0.648680000000     0.492870000000     0.015680000000    -0.0542705  
C156     C      0.671750000000     0.421380000000     0.957930000000     0.118093   
C157     C      0.680840000000     0.420120000000     0.041940000000    -0.00292984 
C158     C      0.685710000000     0.525450000000     0.999650000000    -0.0547292  
C159     C      0.279780000000     0.747100000000     0.863730000000    -0.0311155  
C160     C      0.220490000000     0.764890000000     0.647210000000    -0.0308814  
C161     C      0.197350000000     0.811360000000     0.660960000000    -0.00527467 
C162     C      0.199400000000     0.772200000000     0.617630000000    -0.00524714 
C163     C      0.226770000000     0.752710000000     0.759280000000    -0.0512248  
C164     C      0.275660000000     0.760890000000     0.750250000000    -0.0514528  
C165     C      0.235080000000     0.766410000000     0.723220000000     0.0631653  
C166     C      0.218460000000     0.802380000000     0.688890000000    -0.0307834  
C167     C      0.267330000000     0.747330000000     0.786540000000     0.0638966  
C168     C      0.284960000000     0.711450000000     0.818440000000    -0.0617131  
C169     C      0.242670000000     0.743170000000     0.790670000000    -0.0541351  
C170     C      0.305150000000     0.701860000000     0.848510000000     0.115936   
C171     C      0.300240000000     0.740010000000     0.894660000000    -0.00478819 
C172     C      0.259740000000     0.770330000000     0.718690000000    -0.0539725  
C173     C      0.262120000000     0.716100000000     0.159650000000    -0.0325766  
C174     C      0.240190000000     0.794860000000     0.352030000000    -0.030955   
C175     C      0.192260000000     0.780370000000     0.378540000000    -0.00408983 
C176     C      0.225230000000     0.812290000000     0.379610000000    -0.00423532 
C177     C      0.232450000000     0.771610000000     0.245300000000    -0.0517238  
C178     C      0.267540000000     0.737900000000     0.268000000000    -0.0517337  
C179     C      0.237390000000     0.766900000000     0.290350000000     0.0632581  
C180     C      0.209110000000     0.764660000000     0.351170000000    -0.0308693  
C181     C      0.262840000000     0.742880000000     0.222890000000     0.0626717  
C182     C      0.290730000000     0.748390000000     0.162730000000    -0.0629585  
C183     C      0.244960000000     0.759720000000     0.211770000000    -0.054078   
C184     C      0.308180000000     0.735480000000     0.131460000000     0.118296   
C185     C      0.278080000000     0.700330000000     0.130850000000    -0.00172682 
C186     C      0.254900000000     0.749720000000     0.301590000000    -0.0548913  
C187     C      0.441590000000     0.694930000000     0.053240000000    -0.0327848  
C188     C      0.565050000000     0.714240000000     0.982410000000    -0.0305758  
C189     C      0.591380000000     0.702700000000     0.063860000000    -0.00572686 
C190     C      0.590670000000     0.723050000000     0.988430000000    -0.00579846 
C191     C      0.512010000000     0.724760000000     0.035610000000    -0.0514112  
C192     C      0.495190000000     0.681320000000     0.000320000000    -0.0519062  
C193     C      0.528280000000     0.707170000000     0.021970000000     0.0630322  
C194     C      0.565680000000     0.694640000000     0.055620000000    -0.0306182  
C195     C      0.478900000000     0.698860000000     0.014230000000     0.0631219  
C196     C      0.442090000000     0.710230000000     0.977930000000    -0.062607   
C197     C      0.487530000000     0.720750000000     0.031730000000    -0.0541554  
C198     C      0.416360000000     0.702140000000     0.968460000000     0.118615   
C199     C      0.416580000000     0.684600000000     0.048560000000    -0.000593768
C200     C      0.519680000000     0.685390000000     0.003970000000    -0.054423   
C201     C      0.222310000000     0.249030000000     0.630110000000    -0.03245    
C202     C      0.287260000000     0.267880000000     0.840330000000    -0.0308241  
C203     C      0.299770000000     0.318890000000     0.836840000000    -0.00547587 
C204     C      0.307700000000     0.277330000000     0.869230000000    -0.00527007 
C205     C      0.278240000000     0.263200000000     0.727060000000    -0.0519544  
C206     C      0.229620000000     0.258280000000     0.744930000000    -0.0519957  
C207     C      0.269110000000     0.271830000000     0.767380000000     0.0631005  
C208     C      0.279680000000     0.307720000000     0.809110000000    -0.0306366  
C209     C      0.238790000000     0.249470000000     0.704710000000     0.0626372  
C210     C      0.229180000000     0.211660000000     0.669670000000    -0.0627179  
C211     C      0.263300000000     0.252090000000     0.695940000000    -0.0541413  
C212     C      0.210380000000     0.198060000000     0.642090000000     0.117474   
C213     C      0.202360000000     0.238190000000     0.601950000000    -0.00296763 
C214     C      0.244600000000     0.269370000000     0.776120000000    -0.0547866  
C215     C      0.199880000000     0.238960000000     0.323830000000    -0.0326898  
C216     C      0.286240000000     0.267500000000     0.148150000000    -0.0309374  
C217     C      0.263290000000     0.307290000000     0.100610000000    -0.00491806 
C218     C      0.293780000000     0.273310000000     0.100330000000    -0.00472041 
C219     C      0.233540000000     0.247400000000     0.194340000000    -0.0515916  
C220     C      0.251680000000     0.262190000000     0.276970000000    -0.0518611  
C221     C      0.251710000000     0.264660000000     0.195780000000     0.0630879  
C222     C      0.257130000000     0.299840000000     0.148480000000    -0.0309228  
C223     C      0.233680000000     0.244720000000     0.275520000000     0.0628411  
C224     C      0.230180000000     0.208370000000     0.319500000000    -0.0625094  
C225     C      0.224530000000     0.237490000000     0.233750000000    -0.0542032  
C226     C      0.224500000000     0.198300000000     0.366190000000     0.117215   
C227     C      0.193150000000     0.232200000000     0.371510000000    -0.0011763  
C228     C      0.260660000000     0.272160000000     0.237490000000    -0.0548395  
C229     C      0.560410000000     0.333690000000     0.965080000000    -0.0319769  
C230     C      0.436140000000     0.324000000000     0.038600000000    -0.0312752  
C231     C      0.411510000000     0.336070000000     0.955320000000    -0.00389689 
C232     C      0.410390000000     0.332840000000     0.040710000000    -0.00370232 
C233     C      0.488180000000     0.351950000000     0.002520000000    -0.0514568  
C234     C      0.508750000000     0.306040000000     0.001420000000    -0.0515144  
C235     C      0.473520000000     0.331580000000     0.000960000000     0.0632139  
C236     C      0.437170000000     0.326950000000     0.958000000000    -0.0311716  
C237     C      0.523430000000     0.326440000000     0.003240000000     0.0633443  
C238     C      0.559490000000     0.333100000000     0.045590000000    -0.0623264  
C239     C      0.512910000000     0.349510000000     0.003550000000    -0.0543006  
C240     C      0.586100000000     0.326770000000     0.049380000000     0.118037   
C241     C      0.586390000000     0.325870000000     0.963560000000    -0.00260024 
C242     C      0.483960000000     0.308510000000     0.000160000000    -0.0544379  
C243     C      0.337850000000     0.568540000000     0.024300000000    -0.0325105  
C244     C      0.295390000000     0.444580000000     0.990670000000    -0.030992   
C245     C      0.336980000000     0.419730000000     0.027700000000    -0.00408774 
C246     C      0.300100000000     0.418540000000     0.976410000000    -0.00411654 
C247     C      0.327600000000     0.497000000000     0.972710000000    -0.051667   
C248     C      0.302150000000     0.518390000000     0.042210000000    -0.0520168  
C249     C      0.315870000000     0.482400000000     0.003860000000     0.0630094  
C250     C      0.329940000000     0.445590000000     0.038830000000    -0.0309217  
C251     C      0.314230000000     0.533000000000     0.011450000000     0.0627565  
C252     C      0.302120000000     0.571140000000     0.979490000000    -0.0621602  
C253     C      0.326800000000     0.522060000000     0.976270000000    -0.0542166  
C254     C      0.299060000000     0.598230000000     0.988810000000     0.115957   
C255     C      0.336290000000     0.594880000000     0.038200000000    -0.00271145 
C256     C      0.302870000000     0.493260000000     0.038510000000    -0.05492    
H1       H      0.169740000000     0.979340000000     0.533410000000     0.0439574  
H2       H      0.219590000000     0.060620000000     0.527370000000     0.0420723  
H3       H      0.162990000000     0.054120000000     0.434750000000     0.0571342  
H4       H      0.226950000000     0.913440000000     0.486490000000     0.041777   
H5       H      0.197820000000     0.095730000000     0.543570000000     0.0484627  
H6       H      0.169910000000     0.953300000000     0.428790000000     0.0393244  
H7       H      0.222700000000     0.949730000000     0.530360000000     0.0392332  
H8       H      0.162070000000     0.909110000000     0.437040000000     0.046767   
H9       H      0.166270000000     0.023430000000     0.536690000000     0.0496886  
H10      H      0.221430000000     0.105840000000     0.508510000000     0.0570081  
H11      H      0.222630000000     0.986070000000     0.430110000000     0.0496306  
H12      H      0.223620000000     0.068530000000     0.469520000000     0.0459697  
H13      H      0.214950000000     0.905310000000     0.540010000000     0.0474083  
H14      H      0.152750000000     0.091590000000     0.464190000000     0.0310395  
H15      H      0.161330000000     0.944670000000     0.484640000000     0.0405199  
H16      H      0.192250000000     0.942690000000     0.544220000000     0.0404094  
H17      H      0.219140000000     0.030110000000     0.433280000000     0.0472593  
H18      H      0.192130000000     0.063430000000     0.417240000000     0.0656841  
H19      H      0.191490000000     0.916110000000     0.417640000000     0.0409514  
H20      H      0.028130000000     0.793440000000     0.529510000000     0.0433661  
H21      H      0.945620000000     0.830460000000     0.579680000000     0.0382753  
H22      H      0.951120000000     0.811440000000     0.443410000000     0.0589865  
H23      H      0.087360000000     0.861970000000     0.551470000000     0.0403812  
H24      H      0.911620000000     0.805330000000     0.564000000000     0.0406687  
H25      H      0.051560000000     0.826010000000     0.443030000000     0.0391376  
H26      H      0.053540000000     0.841040000000     0.581700000000     0.0378182  
H27      H      0.096180000000     0.821380000000     0.442770000000     0.0472675  
H28      H      0.984900000000     0.786400000000     0.529940000000     0.0482406  
H29      H      0.901740000000     0.835750000000     0.571370000000     0.0474161  
H30      H      0.016090000000     0.868390000000     0.498260000000     0.0487448  
H31      H      0.937310000000     0.852020000000     0.537130000000     0.0419501  
H32      H      0.098320000000     0.836190000000     0.581480000000     0.0445183  
H33      H      0.914220000000     0.793520000000     0.465470000000     0.0301544  
H34      H      0.062650000000     0.803600000000     0.481660000000     0.0399407  
H35      H      0.063740000000     0.812240000000     0.561610000000     0.0390539  
H36      H      0.973030000000     0.861440000000     0.498580000000     0.045121   
H37      H      0.941670000000     0.841340000000     0.458460000000     0.0627906  
H38      H      0.085800000000     0.851420000000     0.452970000000     0.0418097  
H39      H      0.789050000000     0.976790000000     0.486100000000     0.046821   
H40      H      0.806760000000     0.057820000000     0.574530000000     0.0427372  
H41      H      0.833870000000     0.053340000000     0.443230000000     0.0597734  
H42      H      0.833970000000     0.912030000000     0.573420000000     0.0418045  
H43      H      0.792480000000     0.093580000000     0.538150000000     0.0483761  
H44      H      0.841410000000     0.952390000000     0.450140000000     0.0422355  
H45      H      0.808990000000     0.947030000000     0.577350000000     0.0400305  
H46      H      0.836510000000     0.907570000000     0.439660000000     0.0573416  
H47      H      0.785170000000     0.020910000000     0.482510000000     0.0513631  
H48      H      0.815800000000     0.102150000000     0.575780000000     0.0586118  
H49      H      0.858760000000     0.984320000000     0.545160000000     0.0498578  
H50      H      0.837460000000     0.065250000000     0.563750000000     0.0462639  
H51      H      0.803880000000     0.902010000000     0.566090000000     0.0491115  
H52      H      0.814760000000     0.091550000000     0.441600000000     0.0325536  
H53      H      0.811160000000     0.941830000000     0.454900000000     0.04575    
H54      H      0.792510000000     0.938870000000     0.527880000000     0.0433878  
H55      H      0.854990000000     0.028270000000     0.541540000000     0.0470244  
H56      H      0.853180000000     0.061300000000     0.488940000000     0.0646649  
H57      H      0.857570000000     0.916140000000     0.481860000000     0.0440241  
H58      H      0.026210000000     0.216200000000     0.532780000000     0.0434876  
H59      H      0.948630000000     0.192740000000     0.451990000000     0.0399123  
H60      H      0.947020000000     0.175430000000     0.589660000000     0.0589758  
H61      H      0.084930000000     0.161150000000     0.451580000000     0.047136   
H62      H      0.912790000000     0.210890000000     0.479610000000     0.0407319  
H63      H      0.055190000000     0.170590000000     0.583330000000     0.0394848  
H64      H      0.049500000000     0.184970000000     0.444600000000     0.0396237  
H65      H      0.099770000000     0.177890000000     0.579220000000     0.0458068  
H66      H      0.982710000000     0.220780000000     0.536390000000     0.0484368  
H67      H      0.904880000000     0.185410000000     0.446130000000     0.0524149  
H68      H      0.017650000000     0.140810000000     0.502240000000     0.0504297  
H69      H      0.939660000000     0.163000000000     0.469760000000     0.0465405  
H70      H      0.093920000000     0.191650000000     0.441000000000     0.0494844  
H71      H      0.910060000000     0.195880000000     0.579400000000     0.0304613  
H72      H      0.063610000000     0.199690000000     0.561500000000     0.0392708  
H73      H      0.060500000000     0.207870000000     0.481960000000     0.0396482  
H74      H      0.974320000000     0.145350000000     0.505450000000     0.0472373  
H75      H      0.940110000000     0.152760000000     0.548780000000     0.0645311  
H76      H      0.089350000000     0.151070000000     0.552300000000     0.0433502  
H77      H      0.741060000000     0.755250000000     0.806580000000     0.0437139  
H78      H      0.803990000000     0.749320000000     0.677170000000     0.0382976  
H79      H      0.738080000000     0.780830000000     0.641180000000     0.0580306  
H80      H      0.724460000000     0.668100000000     0.847190000000     0.0397605  
H81      H      0.815660000000     0.786920000000     0.645980000000     0.0409104  
H82      H      0.689590000000     0.724430000000     0.777240000000     0.0393275  
H83      H      0.755170000000     0.696490000000     0.825650000000     0.0376529  
H84      H      0.669060000000     0.710970000000     0.847070000000     0.0493663  
H85      H      0.761600000000     0.779360000000     0.749510000000     0.0488767  
H86      H      0.821660000000     0.764600000000     0.604650000000     0.0462805  
H87      H      0.733100000000     0.697090000000     0.712550000000     0.0481082  
H88      H      0.788670000000     0.740030000000     0.627120000000     0.0415346  
H89      H      0.735290000000     0.682980000000     0.896460000000     0.0457218  
H90      H      0.764350000000     0.810390000000     0.613310000000     0.0324295  
H91      H      0.702440000000     0.737130000000     0.827220000000     0.0410866  
H92      H      0.741090000000     0.720720000000     0.855700000000     0.0397321  
H93      H      0.753420000000     0.721210000000     0.655420000000     0.0447747  
H94      H      0.750650000000     0.756920000000     0.608490000000     0.0625261  
H95      H      0.680880000000     0.686620000000     0.814560000000     0.0409429  
H96      H      0.719630000000     0.740770000000     0.225390000000     0.0442372  
H97      H      0.797000000000     0.751780000000     0.318580000000     0.0399269  
H98      H      0.759060000000     0.816670000000     0.297240000000     0.0592811  
H99      H      0.751720000000     0.712230000000     0.075980000000     0.0399967  
H100     H      0.791520000000     0.766900000000     0.392170000000     0.0445538  
H101     H      0.719130000000     0.774570000000     0.129430000000     0.0394063  
H102     H      0.757730000000     0.710300000000     0.156030000000     0.0382217  
H103     H      0.694640000000     0.753090000000     0.071600000000     0.0460576  
H104     H      0.734720000000     0.757500000000     0.295910000000     0.050821   
H105     H      0.821880000000     0.772390000000     0.377480000000     0.0531901  
H106     H      0.780610000000     0.769550000000     0.156260000000     0.0488649  
H107     H      0.812290000000     0.778540000000     0.299990000000     0.0452664  
H108     H      0.733720000000     0.688330000000     0.098330000000     0.047531   
H109     H      0.764810000000     0.818420000000     0.375380000000     0.03584    
H110     H      0.703480000000     0.748650000000     0.151090000000     0.0408684  
H111     H      0.726130000000     0.710920000000     0.166620000000     0.0407022  
H112     H      0.795710000000     0.786230000000     0.226600000000     0.0467151  
H113     H      0.790350000000     0.814890000000     0.285230000000     0.0644998  
H114     H      0.725700000000     0.755340000000     0.058090000000     0.0395785  
H115     H      0.717180000000     0.288450000000     0.748330000000     0.045032   
H116     H      0.795870000000     0.259610000000     0.673650000000     0.039098   
H117     H      0.740080000000     0.208440000000     0.669060000000     0.0593129  
H118     H      0.742390000000     0.298360000000     0.911100000000     0.0425078  
H119     H      0.792390000000     0.248500000000     0.596420000000     0.0389349  
H120     H      0.698990000000     0.250960000000     0.831710000000     0.041304   
H121     H      0.754150000000     0.303090000000     0.834420000000     0.0390052  
H122     H      0.676210000000     0.274790000000     0.889030000000     0.0517191  
H123     H      0.733380000000     0.271670000000     0.678880000000     0.0489127  
H124     H      0.819120000000     0.235510000000     0.618680000000     0.0504313  
H125     H      0.760990000000     0.239650000000     0.825210000000     0.0505881  
H126     H      0.801330000000     0.228930000000     0.691070000000     0.0448274  
H127     H      0.731390000000     0.326930000000     0.891800000000     0.0489892  
H128     H      0.753400000000     0.209130000000     0.593540000000     0.0287336  
H129     H      0.692770000000     0.281660000000     0.815350000000     0.0422562  
H130     H      0.724590000000     0.311730000000     0.816930000000     0.0420684  
H131     H      0.777190000000     0.222920000000     0.756090000000     0.0468149  
H132     H      0.768830000000     0.199960000000     0.690730000000     0.0644546  
H133     H      0.703300000000     0.261440000000     0.909160000000     0.0476344  
H134     H      0.742260000000     0.259620000000     0.328260000000     0.0444186  
H135     H      0.751200000000     0.310270000000     0.180030000000     0.0388296  
H136     H      0.705850000000     0.249620000000     0.171300000000     0.0594785  
H137     H      0.826010000000     0.227110000000     0.354720000000     0.043495   
H138     H      0.714980000000     0.326690000000     0.151380000000     0.0440203  
H139     H      0.757670000000     0.200800000000     0.311850000000     0.0410242  
H140     H      0.802700000000     0.261240000000     0.330920000000     0.0382785  
H141     H      0.772270000000     0.182890000000     0.384440000000     0.0502463  
H142     H      0.719440000000     0.280860000000     0.269950000000     0.0502289  
H143     H      0.735440000000     0.325220000000     0.105870000000     0.0472828  
H144     H      0.789580000000     0.231580000000     0.228020000000     0.0497767  
H145     H      0.754140000000     0.289350000000     0.134480000000     0.041631   
H146     H      0.817330000000     0.243370000000     0.403700000000     0.0459918  
H147     H      0.681040000000     0.279730000000     0.139910000000     0.0358185  
H148     H      0.753460000000     0.220010000000     0.359650000000     0.0413025  
H149     H      0.779450000000     0.254910000000     0.370650000000     0.0396716  
H150     H      0.766860000000     0.252730000000     0.169830000000     0.0454081  
H151     H      0.729230000000     0.254120000000     0.131280000000     0.0628155  
H152     H      0.794200000000     0.184420000000     0.341120000000     0.0459738  
H153     H      0.700170000000     0.537830000000     0.993000000000     0.0433998  
H154     H      0.680100000000     0.455010000000     0.073070000000     0.0393405  
H155     H      0.667460000000     0.457950000000     0.933780000000     0.0583534  
H156     H      0.643810000000     0.597200000000     0.065680000000     0.0399897  
H157     H      0.700630000000     0.420740000000     0.042960000000     0.0408741  
H158     H      0.649530000000     0.560640000000     0.941360000000     0.038509   
H159     H      0.669790000000     0.563070000000     0.077910000000     0.0380589  
H160     H      0.653020000000     0.605660000000     0.935910000000     0.0454295  
H161     H      0.707730000000     0.494230000000     0.990050000000     0.0483511  
H162     H      0.674910000000     0.410250000000     0.072340000000     0.0518759  
H163     H      0.626630000000     0.524060000000     0.025030000000     0.0481795  
H164     H      0.651830000000     0.445200000000     0.050890000000     0.0442546  
H165     H      0.673610000000     0.608180000000     0.073290000000     0.0472204  
H166     H      0.689640000000     0.421480000000     0.942150000000     0.0300264  
H167     H      0.678650000000     0.571840000000     0.956250000000     0.0402489  
H168     H      0.690480000000     0.573250000000     0.035940000000     0.0399968  
H169     H      0.634050000000     0.480580000000     0.021580000000     0.0455188  
H170     H      0.644250000000     0.448150000000     0.970950000000     0.063052   
H171     H      0.629880000000     0.595430000000     0.972610000000     0.0391108  
H172     H      0.266640000000     0.780680000000     0.690890000000     0.0443701  
H173     H      0.278490000000     0.767130000000     0.863090000000     0.041503   
H174     H      0.288000000000     0.704910000000     0.783800000000     0.0605223  
H175     H      0.180690000000     0.807860000000     0.679830000000     0.040542   
H176     H      0.316480000000     0.749960000000     0.884130000000     0.0497283  
H177     H      0.220660000000     0.744880000000     0.650200000000     0.0389578  
H178     H      0.217090000000     0.810250000000     0.722940000000     0.0388683  
H179     H      0.202410000000     0.765200000000     0.583350000000     0.0460815  
H180     H      0.294560000000     0.764140000000     0.746480000000     0.0509302  
H181     H      0.295780000000     0.746110000000     0.928970000000     0.0565481  
H182     H      0.207870000000     0.749430000000     0.763020000000     0.0487166  
H183     H      0.262850000000     0.739780000000     0.877520000000     0.0440164  
H184     H      0.199000000000     0.831190000000     0.656380000000     0.0481727  
H185     H      0.322420000000     0.705700000000     0.831890000000     0.0355637  
H186     H      0.237380000000     0.770660000000     0.630950000000     0.0405279  
H187     H      0.235300000000     0.808910000000     0.673500000000     0.0407669  
H188     H      0.235710000000     0.732610000000     0.818140000000     0.0462585  
H189     H      0.267640000000     0.703960000000     0.830120000000     0.0641357  
H190     H      0.183030000000     0.763480000000     0.630850000000     0.0399412  
H191     H      0.258920000000     0.745660000000     0.336190000000     0.0436411  
H192     H      0.250390000000     0.704100000000     0.179770000000     0.0386683  
H193     H      0.301190000000     0.760280000000     0.185400000000     0.0583268  
H194     H      0.178660000000     0.788320000000     0.355730000000     0.0421308  
H195     H      0.285910000000     0.685890000000     0.152200000000     0.0396147  
H196     H      0.252600000000     0.805600000000     0.330940000000     0.0392274  
H197     H      0.198200000000     0.752690000000     0.329450000000     0.0380413  
H198     H      0.236990000000     0.821180000000     0.404600000000     0.0456388  
H199     H      0.281190000000     0.724970000000     0.277070000000     0.0484266  
H200     H      0.266770000000     0.691280000000     0.105310000000     0.048392   
H201     H      0.218950000000     0.784710000000     0.236230000000     0.0488776  
H202     H      0.250570000000     0.727380000000     0.137610000000     0.0428202  
H203     H      0.182690000000     0.768710000000     0.402880000000     0.0466613  
H204     H      0.323920000000     0.729600000000     0.151340000000     0.0305006  
H205     H      0.251040000000     0.783350000000     0.374910000000     0.0397842  
H206     H      0.219860000000     0.753050000000     0.374060000000     0.0397289  
H207     H      0.240850000000     0.763870000000     0.177240000000     0.0453893  
H208     H      0.278610000000     0.760130000000     0.142650000000     0.0633334  
H209     H      0.218210000000     0.826660000000     0.357120000000     0.0409293  
H210     H      0.531880000000     0.671590000000     0.992780000000     0.0435038  
H211     H      0.451420000000     0.683990000000     0.078550000000     0.0390047  
H212     H      0.452020000000     0.710260000000     0.945790000000     0.0586024  
H213     H      0.591070000000     0.719550000000     0.083880000000     0.0401084  
H214     H      0.417900000000     0.664650000000     0.045600000000     0.0418991  
H215     H      0.555340000000     0.727490000000     0.961090000000     0.0396843  
H216     H      0.556430000000     0.693470000000     0.088360000000     0.0381448  
H217     H      0.599560000000     0.723410000000     0.955310000000     0.0495863  
H218     H      0.488840000000     0.664470000000     0.986590000000     0.0489198  
H219     H      0.406670000000     0.688360000000     0.079890000000     0.0500794  
H220     H      0.518360000000     0.741650000000     0.049230000000     0.0492002  
H221     H      0.440400000000     0.713760000000     0.065870000000     0.0441574  
H222     H      0.600750000000     0.688650000000     0.083860000000     0.0462979  
H223     H      0.416820000000     0.686900000000     0.944460000000     0.0323319  
H224     H      0.565210000000     0.696580000000     0.964820000000     0.041125   
H225     H      0.565840000000     0.676340000000     0.040450000000     0.0397644  
H226     H      0.475380000000     0.734700000000     0.042440000000     0.0464434  
H227     H      0.442140000000     0.729060000000     0.990860000000     0.0644038  
H228     H      0.590200000000     0.741820000000     0.001310000000     0.0412296  
H229     H      0.237130000000     0.275780000000     0.807160000000     0.0433374  
H230     H      0.218810000000     0.268670000000     0.633880000000     0.0379853  
H231     H      0.230270000000     0.203130000000     0.703370000000     0.0588262  
H232     H      0.315850000000     0.320530000000     0.815480000000     0.0409392  
H233     H      0.184980000000     0.243870000000     0.616170000000     0.0389017  
H234     H      0.291010000000     0.248720000000     0.831960000000     0.0391819  
H235     H      0.277830000000     0.318190000000     0.777480000000     0.037889   
H236     H      0.307820000000     0.267290000000     0.901460000000     0.0467162  
H237     H      0.210860000000     0.256300000000     0.752260000000     0.0482768  
H238     H      0.203480000000     0.246010000000     0.567740000000     0.0466846  
H239     H      0.297060000000     0.264880000000     0.719990000000     0.0486296  
H240     H      0.239510000000     0.246850000000     0.612150000000     0.0420908  
H241     H      0.294400000000     0.337380000000     0.846900000000     0.047466   
H242     H      0.194310000000     0.195380000000     0.663130000000     0.0299819  
H243     H      0.270410000000     0.268530000000     0.859800000000     0.0400602  
H244     H      0.262660000000     0.309190000000     0.827880000000     0.0395961  
H245     H      0.270940000000     0.245330000000     0.665310000000     0.045212   
H246     H      0.246930000000     0.209730000000     0.653560000000     0.0630831  
H247     H      0.324790000000     0.273500000000     0.852020000000     0.0409876  
H248     H      0.274690000000     0.285480000000     0.239480000000     0.0434981  
H249     H      0.195880000000     0.258450000000     0.318730000000     0.0383899  
H250     H      0.249340000000     0.204910000000     0.312470000000     0.0585638  
H251     H      0.249610000000     0.299760000000     0.077620000000     0.0394333  
H252     H      0.200640000000     0.245950000000     0.394590000000     0.0412097  
H253     H      0.288990000000     0.247870000000     0.154130000000     0.0395666  
H254     H      0.238110000000     0.304340000000     0.154650000000     0.0375323  
H255     H      0.313320000000     0.270460000000     0.097470000000     0.0478003  
H256     H      0.258880000000     0.267940000000     0.308800000000     0.0484391  
H257     H      0.173430000000     0.233130000000     0.374490000000     0.0489965  
H258     H      0.226510000000     0.241480000000     0.162490000000     0.0488961  
H259     H      0.188680000000     0.228470000000     0.300050000000     0.0436236  
H260     H      0.262400000000     0.327280000000     0.097970000000     0.0443861  
H261     H      0.239440000000     0.202930000000     0.389110000000     0.0312567  
H262     H      0.297800000000     0.277620000000     0.171890000000     0.0404961  
H263     H      0.268270000000     0.310360000000     0.172310000000     0.0392862  
H264     H      0.210610000000     0.224060000000     0.231570000000     0.0462496  
H265     H      0.219520000000     0.198530000000     0.293910000000     0.0645896  
H266     H      0.284880000000     0.260410000000     0.077350000000     0.0409648  
H267     H      0.472990000000     0.292490000000     0.998670000000     0.0443137  
H268     H      0.551450000000     0.327260000000     0.934090000000     0.0402696  
H269     H      0.550190000000     0.325550000000     0.075310000000     0.0592381  
H270     H      0.411780000000     0.355840000000     0.949080000000     0.0408137  
H271     H      0.587120000000     0.306320000000     0.955530000000     0.044312   
H272     H      0.445320000000     0.329250000000     0.070140000000     0.0391776  
H273     H      0.447140000000     0.334360000000     0.928960000000     0.038302   
H274     H      0.400780000000     0.322170000000     0.066520000000     0.0466112  
H275     H      0.516560000000     0.288190000000     0.000970000000     0.0500498  
H276     H      0.595170000000     0.335680000000     0.935620000000     0.0536858  
H277     H      0.480360000000     0.369800000000     0.002940000000     0.048504   
H278     H      0.559500000000     0.353760000000     0.965410000000     0.0447139  
H279     H      0.402580000000     0.327520000000     0.926160000000     0.0446152  
H280     H      0.587730000000     0.307600000000     0.059950000000     0.0337593  
H281     H      0.436310000000     0.303960000000     0.036400000000     0.0402326  
H282     H      0.437330000000     0.306910000000     0.955560000000     0.0399716  
H283     H      0.523770000000     0.365600000000     0.004630000000     0.045794   
H284     H      0.557340000000     0.353070000000     0.046330000000     0.0629825  
H285     H      0.410360000000     0.351960000000     0.051780000000     0.0423917  
H286     H      0.293610000000     0.482330000000     0.062920000000     0.0431677  
H287     H      0.347080000000     0.558340000000     0.051410000000     0.0381309  
H288     H      0.284170000000     0.563170000000     0.973740000000     0.0589212  
H289     H      0.352660000000     0.420170000000     0.005120000000     0.0404916  
H290     H      0.328780000000     0.595750000000     0.072480000000     0.0390642  
H291     H      0.285820000000     0.453970000000     0.962990000000     0.0388066  
H292     H      0.346370000000     0.455780000000     0.047600000000     0.0375716  
H293     H      0.282920000000     0.408540000000     0.975930000000     0.0455722  
H294     H      0.292360000000     0.526520000000     0.069360000000     0.0480679  
H295     H      0.354700000000     0.602230000000     0.039910000000     0.0477125  
H296     H      0.337630000000     0.488860000000     0.945880000000     0.0487656  
H297     H      0.348820000000     0.567210000000     0.993490000000     0.0429825  
H298     H      0.342720000000     0.410490000000     0.059000000000     0.0446622  
H299     H      0.284380000000     0.600530000000     0.013220000000     0.0303748  
H300     H      0.283650000000     0.444690000000     0.020580000000     0.0391782  
H301     H      0.318060000000     0.445580000000     0.068560000000     0.0386694  
H302     H      0.336240000000     0.532850000000     0.951910000000     0.0458868  
H303     H      0.312660000000     0.568730000000     0.948360000000     0.0640823  
H304     H      0.306980000000     0.418650000000     0.941620000000     0.0426776  
In1      In     0.325890000000     0.333730000000     0.993670000000     2.39913    
In2      In     0.331970000000     0.682030000000     0.005480000000     2.41667    
In3      In     0.671370000000     0.334210000000     0.002540000000     2.42812    
In4      In     0.669960000000     0.682670000000     0.995650000000     2.40235    
In5      In     0.827400000000     0.177720000000     0.504760000000     2.42417    
In6      In     0.828040000000     0.828200000000     0.497320000000     2.4234     
In7      In     0.172940000000     0.833400000000     0.505920000000     2.40188    
In8      In     0.172380000000     0.177330000000     0.495340000000     2.41434    
N1       N      0.186830000000     0.105990000000     0.478550000000    -0.170796   
N2       N      0.188800000000     0.055840000000     0.486710000000    -0.107717   
N3       N      0.198140000000     0.953640000000     0.476490000000    -0.112393   
N4       N      0.190640000000     0.903590000000     0.484330000000    -0.16775    
N5       N      0.900280000000     0.822120000000     0.504060000000    -0.174592   
N6       N      0.950470000000     0.818220000000     0.513100000000    -0.109018   
N7       N      0.050460000000     0.836350000000     0.511410000000    -0.112447   
N8       N      0.100470000000     0.834330000000     0.509930000000    -0.16833    
N9       N      0.824190000000     0.104310000000     0.505860000000    -0.172105   
N10      N      0.817260000000     0.053750000000     0.506800000000    -0.107905   
N11      N      0.827940000000     0.951600000000     0.516520000000    -0.112007   
N12      N      0.825790000000     0.901230000000     0.507530000000    -0.165308   
N13      N      0.899650000000     0.181370000000     0.516970000000    -0.173452   
N14      N      0.949750000000     0.187100000000     0.522300000000    -0.108673   
N15      N      0.050460000000     0.174640000000     0.513140000000    -0.111922   
N16      N      0.100230000000     0.178430000000     0.507540000000    -0.166909   
N17      N      0.792450000000     0.788310000000     0.590240000000    -0.175094   
N18      N      0.770950000000     0.767090000000     0.665580000000    -0.108367   
N19      N      0.723170000000     0.709600000000     0.795950000000    -0.112806   
N20      N      0.700210000000     0.693270000000     0.873900000000    -0.16717    
N21      N      0.799480000000     0.803660000000     0.380740000000    -0.171502   
N22      N      0.774650000000     0.782350000000     0.308950000000    -0.107686   
N23      N      0.741110000000     0.744170000000     0.143470000000    -0.112638   
N24      N      0.714950000000     0.720210000000     0.076540000000    -0.168602   
N25      N      0.790650000000     0.210660000000     0.604460000000    -0.174103   
N26      N      0.765530000000     0.236700000000     0.670580000000    -0.108799   
N27      N      0.728960000000     0.274440000000     0.833580000000    -0.111917   
N28      N      0.705100000000     0.299290000000     0.901780000000    -0.165785   
N29      N      0.706510000000     0.299980000000     0.103710000000    -0.173306   
N30      N      0.727110000000     0.280690000000     0.182260000000    -0.10796    
N31      N      0.781280000000     0.230780000000     0.315180000000    -0.11206    
N32      N      0.799840000000     0.209370000000     0.393230000000    -0.166609   
N33      N      0.673400000000     0.407630000000     0.000610000000    -0.173941   
N34      N      0.676640000000     0.458630000000     0.002590000000    -0.10891    
N35      N      0.657390000000     0.559550000000     0.010970000000    -0.112753   
N36      N      0.659540000000     0.610220000000     0.006330000000    -0.168813   
N37      N      0.305290000000     0.713860000000     0.892900000000    -0.171878   
N38      N      0.284320000000     0.737940000000     0.818580000000    -0.108404   
N39      N      0.218010000000     0.775890000000     0.691560000000    -0.112634   
N40      N      0.195980000000     0.798570000000     0.617910000000    -0.167697   
N41      N      0.297710000000     0.713890000000     0.109580000000    -0.174746   
N42      N      0.276900000000     0.731010000000     0.189130000000    -0.108609   
N43      N      0.224480000000     0.780150000000     0.323810000000    -0.112292   
N44      N      0.204900000000     0.800190000000     0.401400000000    -0.167161   
N45      N      0.403520000000     0.694000000000     0.009160000000    -0.1729     
N46      N      0.453720000000     0.693940000000     0.009980000000    -0.108376   
N47      N      0.553430000000     0.712100000000     0.026260000000    -0.112753   
N48      N      0.603300000000     0.707690000000     0.021050000000    -0.16722    
N49      N      0.203150000000     0.211540000000     0.601150000000    -0.174986   
N50      N      0.222940000000     0.237250000000     0.674090000000    -0.108968   
N51      N      0.285340000000     0.282400000000     0.799250000000    -0.112723   
N52      N      0.305650000000     0.303590000000     0.875760000000    -0.167633   
N53      N      0.202150000000     0.208210000000     0.385260000000    -0.173168   
N54      N      0.225320000000     0.234340000000     0.316970000000    -0.108527   
N55      N      0.261030000000     0.273800000000     0.154180000000    -0.112548   
N56      N      0.286840000000     0.298030000000     0.087290000000    -0.168798   
N57      N      0.598990000000     0.329830000000     0.006390000000    -0.172858   
N58      N      0.548970000000     0.323190000000     0.004600000000    -0.108323   
N59      N      0.448060000000     0.335020000000     0.000010000000    -0.112259   
N60      N      0.398210000000     0.331420000000     0.996960000000    -0.167733   
N61      N      0.320970000000     0.609270000000     0.007940000000    -0.174379   
N62      N      0.313800000000     0.558870000000     0.017210000000    -0.109017   
N63      N      0.318140000000     0.456590000000     0.999980000000    -0.11222    
N64      N      0.317660000000     0.406180000000     0.005420000000    -0.166589   
O1       O      0.293700000000     0.330270000000     0.040120000000    -0.50905    
O2       O      0.319640000000     0.302490000000     0.042050000000    -0.499277   
O3       O      0.312560000000     0.336230000000     0.921530000000    -0.491669   
O4       O      0.305900000000     0.368890000000     0.979370000000    -0.485627   
O5       O      0.361350000000     0.329720000000     0.030440000000    -0.493163   
O6       O      0.335760000000     0.370140000000     0.023260000000    -0.503619   
O7       O      0.318720000000     0.301360000000     0.948750000000    -0.504525   
O8       O      0.362240000000     0.333410000000     0.959730000000    -0.506452   
O9       O      0.314120000000     0.713120000000     0.968260000000    -0.495408   
O10      O      0.324470000000     0.682720000000     0.930390000000    -0.463596   
O11      O      0.328720000000     0.710670000000     0.059440000000    -0.477427   
O12      O      0.309680000000     0.648420000000     0.990980000000    -0.470355   
O13      O      0.367190000000     0.692310000000     0.972500000000    -0.478518   
O14      O      0.342910000000     0.643480000000     0.023260000000    -0.505809   
O15      O      0.301600000000     0.684190000000     0.056170000000    -0.503252   
O16      O      0.367850000000     0.682930000000     0.041300000000    -0.491921   
O17      O      0.675830000000     0.303380000000     0.052310000000    -0.47777    
O18      O      0.701190000000     0.331740000000     0.054480000000    -0.498978   
O19      O      0.673890000000     0.304290000000     0.950670000000    -0.49493    
O20      O      0.634810000000     0.332830000000     0.969160000000    -0.494374   
O21      O      0.673920000000     0.370810000000     0.036950000000    -0.496133   
O22      O      0.636260000000     0.329820000000     0.039720000000    -0.476005   
O23      O      0.701630000000     0.330340000000     0.952340000000    -0.50041    
O24      O      0.672680000000     0.370350000000     0.966180000000    -0.481349   
O25      O      0.701760000000     0.685270000000     0.043140000000    -0.497678   
O26      O      0.682630000000     0.717430000000     0.029060000000    -0.509904   
O27      O      0.701440000000     0.680870000000     0.947540000000    -0.503975   
O28      O      0.659710000000     0.645980000000     0.966830000000    -0.510411   
O29      O      0.636680000000     0.704080000000     0.977030000000    -0.48906    
O30      O      0.670430000000     0.647190000000     0.034830000000    -0.496145   
O31      O      0.668750000000     0.695060000000     0.922980000000    -0.488718   
O32      O      0.637190000000     0.686460000000     0.040170000000    -0.504535   
O33      O      0.801770000000     0.178760000000     0.445460000000    -0.497843   
O34      O      0.824650000000     0.208860000000     0.454820000000    -0.502088   
O35      O      0.794550000000     0.182280000000     0.548440000000    -0.480996   
O36      O      0.820130000000     0.141590000000     0.539100000000    -0.483826   
O37      O      0.861680000000     0.177560000000     0.545990000000    -0.477436   
O38      O      0.830080000000     0.141090000000     0.470910000000    -0.478855   
O39      O      0.823200000000     0.206610000000     0.558190000000    -0.501457   
O40      O      0.864690000000     0.183010000000     0.476180000000    -0.49592    
O41      O      0.823750000000     0.799860000000     0.442810000000    -0.49272    
O42      O      0.803340000000     0.831910000000     0.436980000000    -0.475474   
O43      O      0.826310000000     0.799220000000     0.551660000000    -0.506822   
O44      O      0.863970000000     0.817870000000     0.468030000000    -0.473279   
O45      O      0.833870000000     0.866060000000     0.469890000000    -0.491412   
O46      O      0.863540000000     0.830920000000     0.534470000000    -0.503313   
O47      O      0.794520000000     0.818130000000     0.536160000000    -0.48402    
O48      O      0.818120000000     0.862890000000     0.534100000000    -0.496674   
O49      O      0.184970000000     0.799650000000     0.543670000000    -0.506561   
O50      O      0.184190000000     0.832650000000     0.579370000000    -0.493066   
O51      O      0.175210000000     0.803490000000     0.454020000000    -0.490388   
O52      O      0.136250000000     0.829070000000     0.473860000000    -0.495999   
O53      O      0.195260000000     0.867040000000     0.520500000000    -0.491706   
O54      O      0.137530000000     0.837190000000     0.543020000000    -0.507      
O55      O      0.203420000000     0.829060000000     0.456510000000    -0.505939   
O56      O      0.167900000000     0.869740000000     0.471500000000    -0.508032   
O57      O      0.201390000000     0.180120000000     0.442530000000    -0.480639   
O58      O      0.173590000000     0.206010000000     0.440460000000    -0.491262   
O59      O      0.186190000000     0.211080000000     0.530690000000    -0.508155   
O60      O      0.138190000000     0.175270000000     0.536850000000    -0.504569   
O61      O      0.194560000000     0.143470000000     0.508610000000    -0.477318   
O62      O      0.134910000000     0.182390000000     0.467380000000    -0.491987   
O63      O      0.187400000000     0.177980000000     0.566130000000    -0.474489   
O64      O      0.164490000000     0.140330000000     0.465830000000    -0.484321   


