data_structure

_audit_creation_method RASPA-1.0
_audit_creation_date 2023-5-25
_audit_author_name 'Poobodin Mano'

_cell_length_a    43.4968
_cell_length_b    40.0074
_cell_length_c    47.2868
_cell_angle_alpha 90
_cell_angle_beta  90
_cell_angle_gamma 90
_cell_volume      82288.2

_symmetry_cell_setting          triclinic
_symmetry_space_group_name_Hall 'P 1'
_symmetry_space_group_name_H-M  'P 1'
_symmetry_Int_Tables_number     1

_symmetry_equiv_pos_as_xyz 'x,y,z'

loop_
_atom_site_label
_atom_site_type_symbol
_atom_site_fract_x
_atom_site_fract_y
_atom_site_fract_z
_atom_site_charge
C1       C      0.908400000000     0.484110000000     0.912040000000     0.415018   
C2       C      0.830770000000     0.416840000000     0.902790000000     0.405264   
C3       C      0.838950000000     0.492190000000     0.839110000000     0.40415    
C4       C      0.910080000000     0.414850000000     0.840630000000     0.400112   
C5       C      0.143140000000     0.656370000000     0.039710000000     0.403043   
C6       C      0.127470000000     0.711430000000     0.113100000000     0.40817    
C7       C      0.206260000000     0.648600000000     0.121450000000     0.405198   
C8       C      0.218540000000     0.720570000000     0.057240000000     0.405228   
C9       C      0.356660000000     0.922520000000     0.860990000000     0.409089   
C10      C      0.449450000000     0.976350000000     0.865780000000     0.410595   
C11      C      0.432180000000     0.903670000000     0.802160000000     0.402351   
C12      C      0.380230000000     0.002070000000     0.801720000000     0.405219   
C13      C      0.681420000000     0.204370000000     0.085600000000     0.406278   
C14      C      0.588810000000     0.154400000000     0.078240000000     0.407047   
C15      C      0.663870000000     0.132080000000     0.145130000000     0.40531    
C16      C      0.598830000000     0.217920000000     0.146070000000     0.402106   
C17      C      0.321770000000     0.462920000000     0.338550000000     0.40664    
C18      C      0.393520000000     0.393730000000     0.311880000000     0.404879   
C19      C      0.423140000000     0.456750000000     0.375540000000     0.405164   
C20      C      0.345780000000     0.394780000000     0.401110000000     0.401477   
C21      C      0.675610000000     0.634240000000     0.619100000000     0.405371   
C22      C      0.616730000000     0.725060000000     0.617230000000     0.408698   
C23      C      0.689160000000     0.708100000000     0.552450000000     0.412474   
C24      C      0.604660000000     0.645320000000     0.553840000000     0.405414   
C25      C      0.956260000000     0.883580000000     0.310400000000     0.405583   
C26      C      0.863400000000     0.890040000000     0.362190000000     0.404053   
C27      C      0.947280000000     0.950440000000     0.374490000000     0.405342   
C28      C      0.881550000000     0.955470000000     0.296180000000     0.403284   
C29      C      0.068150000000     0.221670000000     0.644790000000     0.405783   
C30      C      0.154370000000     0.157820000000     0.644270000000     0.405064   
C31      C      0.072240000000     0.148620000000     0.584060000000     0.40767    
C32      C      0.144640000000     0.229190000000     0.579940000000     0.404609   
C33      C      0.981700000000     0.969020000000     0.443800000000    -0.0321693  
C34      C      0.031340000000     0.118120000000     0.521920000000    -0.030779   
C35      C      0.047780000000     0.093340000000     0.577880000000    -0.00500954 
C36      C      0.032730000000     0.142190000000     0.546990000000    -0.00484798 
C37      C      0.040010000000     0.051940000000     0.489670000000    -0.0562147  
C38      C      0.979340000000     0.031410000000     0.480540000000    -0.0559477  
C39      C      0.016700000000     0.062230000000     0.508430000000     0.0616089  
C40      C      0.045620000000     0.070890000000     0.551750000000    -0.0309341  
C41      C      0.002680000000     0.021020000000     0.461850000000     0.0614046  
C42      C      0.978020000000     0.020120000000     0.416110000000    -0.0576767  
C43      C      0.032970000000     0.031400000000     0.466680000000    -0.0531883  
C44      C      0.976630000000     0.000650000000     0.388180000000     0.097622   
C45      C      0.979820000000     0.947300000000     0.417190000000    -3.08595e-05
C46      C      0.986420000000     0.051720000000     0.503680000000    -0.0538755  
C47      C      0.732350000000     0.776360000000     0.518790000000    -0.0323564  
C48      C      0.818510000000     0.820730000000     0.390560000000    -0.0307499  
C49      C      0.821850000000     0.893030000000     0.397710000000    -0.00520911 
C50      C      0.826670000000     0.843060000000     0.365380000000    -0.00549194 
C51      C      0.806350000000     0.801730000000     0.452070000000    -0.0562088  
C52      C      0.742670000000     0.793260000000     0.456240000000    -0.0559889  
C53      C      0.786820000000     0.817750000000     0.432550000000     0.0615282  
C54      C      0.813950000000     0.869000000000     0.421800000000    -0.0308749  
C55      C      0.762210000000     0.777220000000     0.475730000000     0.06132    
C56      C      0.733050000000     0.727630000000     0.488060000000    -0.0579792  
C57      C      0.794050000000     0.781620000000     0.473410000000    -0.053242   
C58      C      0.725840000000     0.703890000000     0.512740000000     0.0984575  
C59      C      0.724960000000     0.754970000000     0.544710000000     0.00016024 
C60      C      0.754970000000     0.813300000000     0.434840000000    -0.0539495  
C61      C      0.195290000000     0.254490000000     0.521000000000    -0.0323363  
C62      C      0.299810000000     0.382710000000     0.465410000000    -0.0310484  
C63      C      0.328290000000     0.341500000000     0.421800000000    -0.00552053 
C64      C      0.329630000000     0.394290000000     0.451220000000    -0.00533291 
C65      C      0.242160000000     0.341620000000     0.475710000000    -0.0561558  
C66      C      0.254760000000     0.296750000000     0.519590000000    -0.0559821  
C67      C      0.272860000000     0.333340000000     0.482090000000     0.0615489  
C68      C      0.298380000000     0.332110000000     0.436780000000    -0.0306905  
C69      C      0.224070000000     0.305200000000     0.513310000000     0.0613584  
C70      C      0.199330000000     0.295410000000     0.558710000000    -0.0577994  
C71      C      0.218060000000     0.327740000000     0.491330000000    -0.0532948  
C72      C      0.168740000000     0.284260000000     0.572010000000     0.0980326  
C73      C      0.164730000000     0.241300000000     0.532400000000     4.81165e-05
C74      C      0.278880000000     0.310900000000     0.504140000000    -0.0539696  
C75      C      0.564430000000     0.573720000000     0.521520000000    -0.032233   
C76      C      0.468550000000     0.526670000000     0.400050000000    -0.0308631  
C77      C      0.470570000000     0.454010000000     0.404320000000    -0.00518267 
C78      C      0.458770000000     0.504940000000     0.374990000000    -0.00522827 
C79      C      0.535990000000     0.537150000000     0.438660000000    -0.0539567  
C80      C      0.499140000000     0.564020000000     0.481460000000    -0.0533099  
C81      C      0.504450000000     0.530100000000     0.439020000000     0.0615537  
C82      C      0.479940000000     0.477220000000     0.428570000000    -0.0309426  
C83      C      0.530640000000     0.571180000000     0.481030000000     0.0614382  
C84      C      0.557620000000     0.622720000000     0.491830000000    -0.0578515  
C85      C      0.549100000000     0.557430000000     0.459500000000    -0.0560773  
C86      C      0.565300000000     0.646630000000     0.516260000000     0.0980551  
C87      C      0.572620000000     0.595180000000     0.547210000000    -0.000322417
C88      C      0.486070000000     0.543610000000     0.460720000000    -0.0561433  
C89      C      0.718680000000     0.102920000000     0.198410000000    -0.0320271  
C90      C      0.827920000000     0.971490000000     0.238030000000    -0.0309543  
C91      C      0.861860000000     0.010060000000     0.280050000000    -0.00552553 
C92      C      0.859440000000     0.959380000000     0.248160000000    -0.00541492 
C93      C      0.769300000000     0.013390000000     0.236830000000    -0.0563424  
C94      C      0.775870000000     0.058790000000     0.192240000000    -0.0559101  
C95      C      0.798870000000     0.021450000000     0.226780000000     0.0616747  
C96      C      0.830220000000     0.020200000000     0.268920000000    -0.0306976  
C97      C      0.746320000000     0.050940000000     0.202440000000     0.0613038  
C98      C      0.714340000000     0.061140000000     0.161200000000    -0.0577341  
C99      C      0.743310000000     0.028030000000     0.224660000000    -0.0532718  
C100     C      0.682620000000     0.074310000000     0.152120000000     0.0975159  
C101     C      0.687370000000     0.117780000000     0.190990000000    -0.000309358
C102     C      0.801860000000     0.044060000000     0.204340000000    -0.0540612  
C103     C      0.436270000000     0.327500000000     0.277030000000    -0.0317924  
C104     C      0.550440000000     0.289810000000     0.167260000000    -0.0308782  
C105     C      0.570800000000     0.226070000000     0.190700000000    -0.00498739 
C106     C      0.581080000000     0.274830000000     0.157560000000    -0.00528494 
C107     C      0.488250000000     0.294170000000     0.197320000000    -0.0563359  
C108     C      0.497990000000     0.331870000000     0.246340000000    -0.0558366  
C109     C      0.518110000000     0.297000000000     0.208600000000     0.0617642  
C110     C      0.540590000000     0.243040000000     0.198740000000    -0.0308438  
C111     C      0.468060000000     0.328720000000     0.235280000000     0.0613108  
C112     C      0.443600000000     0.379800000000     0.251370000000    -0.0575305  
C113     C      0.463500000000     0.309980000000     0.210620000000    -0.0533544  
C114     C      0.413190000000     0.394070000000     0.262760000000     0.0970852  
C115     C      0.405780000000     0.339710000000     0.289300000000    -0.000769709
C116     C      0.522730000000     0.316120000000     0.233030000000    -0.0539531  
C117     C      0.320440000000     0.060660000000     0.782970000000    -0.0316737  
C118     C      0.225010000000     0.109790000000     0.661740000000    -0.0309563  
C119     C      0.175450000000     0.144600000000     0.691180000000    -0.00508801 
C120     C      0.193940000000     0.114050000000     0.647010000000    -0.00480849 
C121     C      0.274310000000     0.117360000000     0.708350000000    -0.0564495  
C122     C      0.274030000000     0.055090000000     0.735280000000    -0.0558569  
C123     C      0.247840000000     0.097130000000     0.707130000000     0.0616594  
C124     C      0.207370000000     0.138670000000     0.703790000000    -0.0308318  
C125     C      0.300290000000     0.075600000000     0.737040000000     0.0610461  
C126     C      0.342450000000     0.036260000000     0.740150000000    -0.0573715  
C127     C      0.300230000000     0.106640000000     0.723310000000    -0.0533546  
C128     C      0.373180000000     0.029360000000     0.755160000000     0.0966058  
C129     C      0.350170000000     0.054460000000     0.799400000000    -0.00090686 
C130     C      0.248050000000     0.065920000000     0.720520000000    -0.0540556  
C131     C      0.496550000000     0.854300000000     0.774790000000    -0.0320684  
C132     C      0.551450000000     0.773120000000     0.644960000000    -0.030982   
C133     C      0.615730000000     0.761330000000     0.659420000000    -0.00480039 
C134     C      0.574840000000     0.766300000000     0.621510000000    -0.00518864 
C135     C      0.526030000000     0.779270000000     0.705100000000    -0.0562694  
C136     C      0.521680000000     0.848120000000     0.714640000000    -0.0560443  
C137     C      0.544920000000     0.801390000000     0.689750000000     0.0615365  
C138     C      0.590740000000     0.768400000000     0.681400000000    -0.0310634  
C139     C      0.502830000000     0.826000000000     0.730010000000     0.0612967  
C140     C      0.457060000000     0.859040000000     0.738520000000    -0.0576329  
C141     C      0.505200000000     0.791590000000     0.725040000000    -0.0534075  
C142     C      0.431970000000     0.866200000000     0.760600000000     0.0977057  
C143     C      0.473290000000     0.861430000000     0.798280000000    -0.000551379
C144     C      0.542520000000     0.835800000000     0.694700000000    -0.0539628  
C145     C      0.545970000000     0.090080000000     0.041280000000    -0.0318318  
C146     C      0.493220000000     0.042530000000     0.899120000000    -0.031151   
C147     C      0.481280000000     0.971770000000     0.908900000000    -0.00443349 
C148     C      0.490110000000     0.018480000000     0.874080000000    -0.00498527 
C149     C      0.542710000000     0.049210000000     0.956410000000    -0.054051   
C150     C      0.496990000000     0.086350000000     0.983660000000    -0.0532452  
C151     C      0.512220000000     0.046860000000     0.947110000000     0.0616662  
C152     C      0.484540000000     0.997210000000     0.932830000000    -0.0309813  
C153     C      0.527430000000     0.088470000000     0.993120000000     0.0611893  
C154     C      0.555030000000     0.137290000000     0.009660000000    -0.0573004  
C155     C      0.550360000000     0.069840000000     0.979190000000    -0.0559145  
C156     C      0.557970000000     0.161610000000     0.034680000000     0.0969134  
C157     C      0.548740000000     0.112520000000     0.067340000000    -0.000384761
C158     C      0.489340000000     0.065760000000     0.960840000000    -0.0563892  
C159     C      0.086680000000     0.776460000000     0.152080000000    -0.0320835  
C160     C      0.991360000000     0.810740000000     0.276910000000    -0.0308323  
C161     C      0.002320000000     0.882560000000     0.279950000000    -0.00495298 
C162     C      0.983630000000     0.829960000000     0.304000000000    -0.00522842 
C163     C      0.009150000000     0.800100000000     0.215070000000    -0.0563063  
C164     C      0.070770000000     0.780070000000     0.215110000000    -0.0559093  
C165     C      0.028020000000     0.807800000000     0.238390000000     0.0617922  
C166     C      0.009160000000     0.861620000000     0.253670000000    -0.0307982  
C167     C      0.051950000000     0.772580000000     0.191710000000     0.0613071  
C168     C      0.075710000000     0.722230000000     0.173260000000    -0.0575246  
C169     C      0.021100000000     0.782580000000     0.191990000000    -0.0532552  
C170     C      0.083500000000     0.703820000000     0.145630000000     0.0971321  
C171     C      0.094930000000     0.760340000000     0.123780000000    -0.000110013
C172     C      0.058790000000     0.797500000000     0.238230000000    -0.0540792  
C173     C      0.314930000000     0.900680000000     0.924280000000    -0.0319408  
C174     C      0.261640000000     0.748890000000     0.996420000000    -0.0307181  
C175     C      0.248540000000     0.772930000000     0.053360000000    -0.00550232 
C176     C      0.259420000000     0.724240000000     0.021060000000    -0.00549453 
C177     C      0.255730000000     0.816490000000     0.965820000000    -0.0562557  
C178     C      0.316930000000     0.834860000000     0.956390000000    -0.0559308  
C179     C      0.279010000000     0.804200000000     0.983740000000     0.0616726  
C180     C      0.251290000000     0.796140000000     0.027750000000    -0.0307922  
C181     C      0.293630000000     0.847420000000     0.938630000000     0.0613315  
C182     C      0.318360000000     0.852180000000     0.893010000000    -0.0574649  
C183     C      0.263080000000     0.838010000000     0.943530000000    -0.0533656  
C184     C      0.321210000000     0.874600000000     0.866760000000     0.0965505  
C185     C      0.317900000000     0.924640000000     0.899220000000    -0.000212908
C186     C      0.309560000000     0.813530000000     0.978780000000    -0.0539893  
C187     C      0.224290000000     0.577780000000     0.167950000000    -0.0319192  
C188     C      0.292870000000     0.535560000000     0.305400000000    -0.0307529  
C189     C      0.274060000000     0.465880000000     0.310110000000    -0.0051679  
C190     C      0.294760000000     0.517140000000     0.333740000000    -0.00541709 
C191     C      0.286830000000     0.542210000000     0.241200000000    -0.0561827  
C192     C      0.230150000000     0.573540000000     0.232370000000    -0.0560603  
C193     C      0.263720000000     0.539890000000     0.261980000000     0.0615713  
C194     C      0.272620000000     0.485220000000     0.282230000000    -0.0306686  
C195     C      0.253230000000     0.575680000000     0.211550000000     0.0614175  
C196     C      0.242930000000     0.629190000000     0.189410000000    -0.0574723  
C197     C      0.281540000000     0.559980000000     0.216250000000    -0.0533103  
C198     C      0.243640000000     0.647330000000     0.160760000000     0.097227   
C199     C      0.223920000000     0.593620000000     0.138520000000    -0.000465838
C200     C      0.235450000000     0.555760000000     0.257350000000    -0.0540209  
C201     C      0.030200000000     0.292800000000     0.679200000000    -0.0321104  
C202     C      0.943300000000     0.340040000000     0.806470000000    -0.0309272  
C203     C      0.948230000000     0.412600000000     0.802230000000    -0.00573079 
C204     C      0.937260000000     0.361630000000     0.832610000000    -0.00543858 
C205     C      0.955810000000     0.323100000000     0.744420000000    -0.0563066  
C206     C      0.018360000000     0.307090000000     0.741800000000    -0.056094   
C207     C      0.976020000000     0.335390000000     0.765230000000     0.061553   
C208     C      0.953670000000     0.388860000000     0.777400000000    -0.0306077  
C209     C      0.998170000000     0.294920000000     0.720920000000     0.0613323  
C210     C      0.021980000000     0.242590000000     0.707250000000    -0.0574646  
C211     C      0.966890000000     0.303020000000     0.722490000000    -0.0534324  
C212     C      0.028030000000     0.219750000000     0.681730000000     0.0972145  
C213     C      0.036850000000     0.272240000000     0.652630000000    -0.000141138
C214     C      0.007270000000     0.327150000000     0.763740000000    -0.0539559  
C215     C      0.726250000000     0.273710000000     0.059270000000    -0.0318007  
C216     C      0.791030000000     0.341890000000     0.927820000000    -0.0309925  
C217     C      0.797320000000     0.411650000000     0.944720000000    -0.00487295 
C218     C      0.794900000000     0.369040000000     0.905280000000    -0.00489503 
C219     C      0.789440000000     0.310960000000     0.987100000000    -0.056384   
C220     C      0.727080000000     0.301560000000     0.999160000000    -0.0560356  
C221     C      0.767170000000     0.330390000000     0.973050000000     0.0616934  
C222     C      0.793470000000     0.382990000000     0.965800000000    -0.0309212  
C223     C      0.749350000000     0.282310000000     0.013400000000     0.0613305  
C224     C      0.722300000000     0.230580000000     0.022880000000    -0.057253   
C225     C      0.780490000000     0.287150000000     0.007100000000    -0.0533144  
C226     C      0.717630000000     0.203120000000     0.045210000000     0.096679   
C227     C      0.721650000000     0.247900000000     0.082740000000    -0.000405007
C228     C      0.736020000000     0.325380000000     0.979180000000    -0.0539299  
C229     C      0.773300000000     0.516770000000     0.795200000000    -0.0318295  
C230     C      0.739100000000     0.601900000000     0.661270000000    -0.0310304  
C231     C      0.673190000000     0.590240000000     0.655720000000    -0.00469313 
C232     C      0.723580000000     0.605170000000     0.632360000000    -0.00497074 
C233     C      0.751860000000     0.537680000000     0.707560000000    -0.0539741  
C234     C      0.758470000000     0.584820000000     0.750800000000    -0.0533056  
C235     C      0.738930000000     0.569510000000     0.704350000000     0.0615931  
C236     C      0.690480000000     0.587210000000     0.683780000000    -0.0310861  
C237     C      0.771080000000     0.552860000000     0.754150000000     0.0613352  
C238     C      0.820310000000     0.540110000000     0.775420000000    -0.0575778  
C239     C      0.767960000000     0.529370000000     0.732150000000    -0.0559842  
C240     C      0.837020000000     0.537880000000     0.804010000000     0.0975267  
C241     C      0.788050000000     0.513120000000     0.824390000000    -0.000876714
C242     C      0.742650000000     0.593250000000     0.726090000000    -0.0562523  
C243     C      0.951490000000     0.553980000000     0.941460000000    -0.0322448  
C244     C      0.101390000000     0.589220000000     0.006580000000    -0.0305009  
C245     C      0.105440000000     0.661620000000     0.000790000000    -0.00558076 
C246     C      0.132330000000     0.606970000000     0.009850000000    -0.00565146 
C247     C      0.031680000000     0.582320000000     0.001860000000    -0.056032   
C248     C      0.021310000000     0.562920000000     0.945840000000    -0.0560379  
C249     C      0.053400000000     0.590410000000     0.980840000000     0.0615228  
C250     C      0.075230000000     0.642350000000     0.997800000000    -0.0308091  
C251     C      0.999720000000     0.554610000000     0.966900000000     0.0614173  
C252     C      0.979270000000     0.502010000000     0.950000000000    -0.057742   
C253     C      0.005120000000     0.564530000000     0.994850000000    -0.0535861  
C254     C      0.949650000000     0.481270000000     0.947920000000     0.0975355  
C255     C      0.920920000000     0.535320000000     0.938860000000     0.000146644
C256     C      0.047910000000     0.580660000000     0.952860000000    -0.0540141  
H1       H      0.968210000000     0.059730000000     0.517750000000     0.0448484  
H2       H      0.995590000000     0.955520000000     0.459930000000     0.0361381  
H3       H      0.988600000000     0.045050000000     0.412200000000     0.0434195  
H4       H      0.025850000000     0.091430000000     0.589850000000     0.0363642  
H5       H      0.003490000000     0.939550000000     0.411190000000     0.0395156  
H6       H      0.013880000000     0.127610000000     0.506680000000     0.0355243  
H7       H      0.038640000000     0.045400000000     0.558650000000     0.0356583  
H8       H      0.040890000000     0.166950000000     0.539380000000     0.04491    
H9       H      0.960550000000     0.014170000000     0.373850000000     0.0230427  
H10      H      0.955670000000     0.024180000000     0.477040000000     0.0412652  
H11      H      0.966580000000     0.924270000000     0.422210000000     0.0427861  
H12      H      0.063510000000     0.060100000000     0.492600000000     0.0417658  
H13      H      0.958100000000     0.972590000000     0.452390000000     0.0382287  
H14      H      0.066530000000     0.083980000000     0.591770000000     0.0446296  
H15      H      0.054090000000     0.117770000000     0.511100000000     0.0396951  
H16      H      0.068750000000     0.069160000000     0.541780000000     0.0390481  
H17      H      0.051080000000     0.023930000000     0.452280000000     0.0463156  
H18      H      0.954180000000     0.024410000000     0.423930000000     0.0440358  
H19      H      0.009090000000     0.145500000000     0.555490000000     0.0361554  
H20      H      0.006150000000     0.985530000000     0.356560000000     0.0894929  
H21      H      0.013950000000     0.024170000000     0.369700000000     0.0810605  
H22      H      0.739670000000     0.825560000000     0.420040000000     0.0447188  
H23      H      0.745710000000     0.798570000000     0.525890000000     0.0360495  
H24      H      0.746600000000     0.713960000000     0.471760000000     0.0431752  
H25      H      0.800070000000     0.902930000000     0.388690000000     0.0362481  
H26      H      0.746640000000     0.750230000000     0.556510000000     0.0406101  
H27      H      0.806360000000     0.798180000000     0.382480000000     0.0356004  
H28      H      0.798440000000     0.882140000000     0.436860000000     0.0354417  
H29      H      0.843220000000     0.829580000000     0.351560000000     0.0456441  
H30      H      0.710120000000     0.684090000000     0.504650000000     0.0201464  
H31      H      0.717970000000     0.790400000000     0.457650000000     0.040925   
H32      H      0.709390000000     0.769360000000     0.558850000000     0.0425077  
H33      H      0.831030000000     0.804870000000     0.450860000000     0.041674   
H34      H      0.710490000000     0.785310000000     0.509140000000     0.0378309  
H35      H      0.835000000000     0.914490000000     0.406470000000     0.0441789  
H36      H      0.840120000000     0.812470000000     0.401070000000     0.0392339  
H37      H      0.835430000000     0.862180000000     0.433240000000     0.039138   
H38      H      0.809340000000     0.769540000000     0.488320000000     0.0462721  
H39      H      0.711040000000     0.735580000000     0.478080000000     0.0427238  
H40      H      0.805430000000     0.847680000000     0.352880000000     0.0365254  
H41      H      0.749240000000     0.672910000000     0.540150000000     0.0923173  
H42      H      0.763520000000     0.673110000000     0.506680000000     0.0807167  
H43      H      0.302340000000     0.303950000000     0.509050000000     0.044885   
H44      H      0.195530000000     0.250870000000     0.497650000000     0.0360938  
H45      H      0.203340000000     0.322300000000     0.563570000000     0.0431709  
H46      H      0.347640000000     0.328300000000     0.432370000000     0.0386582  
H47      H      0.145690000000     0.252620000000     0.519960000000     0.0411588  
H48      H      0.299420000000     0.392450000000     0.487460000000     0.0354857  
H49      H      0.296760000000     0.304350000000     0.437530000000     0.0357516  
H50      H      0.329240000000     0.421990000000     0.449320000000     0.0437304  
H51      H      0.171520000000     0.285070000000     0.595420000000     0.0201913  
H52      H      0.260030000000     0.278980000000     0.536140000000     0.0407989  
H53      H      0.163900000000     0.213800000000     0.529010000000     0.0431731  
H54      H      0.236800000000     0.358410000000     0.458460000000     0.0413918  
H55      H      0.214540000000     0.239690000000     0.530200000000     0.0378111  
H56      H      0.327160000000     0.332540000000     0.399570000000     0.0466635  
H57      H      0.279950000000     0.393620000000     0.453780000000     0.0379327  
H58      H      0.278520000000     0.341740000000     0.424340000000     0.038856   
H59      H      0.194570000000     0.334140000000     0.486040000000     0.0462991  
H60      H      0.218380000000     0.280880000000     0.568540000000     0.0419     
H61      H      0.349290000000     0.387450000000     0.465100000000     0.0378172  
H62      H      0.123330000000     0.299130000000     0.572250000000     0.0927461  
H63      H      0.148870000000     0.331280000000     0.572110000000     0.0811899  
H64      H      0.461670000000     0.538390000000     0.461620000000     0.0417871  
H65      H      0.553390000000     0.550310000000     0.529180000000     0.0360155  
H66      H      0.541800000000     0.635460000000     0.476770000000     0.0431996  
H67      H      0.491600000000     0.446730000000     0.392460000000     0.0361111  
H68      H      0.551870000000     0.597650000000     0.560790000000     0.0402313  
H69      H      0.478310000000     0.550420000000     0.391710000000     0.0356711  
H70      H      0.498070000000     0.464560000000     0.441250000000     0.0355356  
H71      H      0.440120000000     0.517880000000     0.363220000000     0.045754   
H72      H      0.578990000000     0.667700000000     0.507370000000     0.0208313  
H73      H      0.484710000000     0.574270000000     0.497980000000     0.0463169  
H74      H      0.590510000000     0.581970000000     0.559750000000     0.043062   
H75      H      0.550440000000     0.526810000000     0.422180000000     0.0446576  
H76      H      0.585890000000     0.566840000000     0.510050000000     0.0377333  
H77      H      0.460230000000     0.430920000000     0.413310000000     0.044134   
H78      H      0.447850000000     0.532780000000     0.412900000000     0.0396637  
H79      H      0.459670000000     0.481570000000     0.442480000000     0.039493   
H80      H      0.573550000000     0.562360000000     0.458820000000     0.0409379  
H81      H      0.579170000000     0.616730000000     0.480160000000     0.0426746  
H82      H      0.478740000000     0.502220000000     0.360480000000     0.0363077  
H83      H      0.542270000000     0.675430000000     0.545590000000     0.091481   
H84      H      0.525310000000     0.674460000000     0.513210000000     0.0808586  
H85      H      0.824460000000     0.050660000000     0.196530000000     0.0449479  
H86      H      0.722780000000     0.106750000000     0.221430000000     0.0361755  
H87      H      0.715830000000     0.033920000000     0.156460000000     0.0430757  
H88      H      0.879680000000     0.024070000000     0.268070000000     0.0382889  
H89      H      0.669890000000     0.107240000000     0.205650000000     0.0411332  
H90      H      0.824610000000     0.963170000000     0.215780000000     0.0354382  
H91      H      0.828510000000     0.047950000000     0.269600000000     0.0356808  
H92      H      0.859460000000     0.931590000000     0.248660000000     0.0438601  
H93      H      0.681230000000     0.072510000000     0.128640000000     0.0202345  
H94      H      0.778870000000     0.076670000000     0.175290000000     0.0407464  
H95      H      0.688210000000     0.145240000000     0.194530000000     0.0440269  
H96      H      0.766350000000     0.996230000000     0.254300000000     0.0413211  
H97      H      0.736910000000     0.116520000000     0.186510000000     0.0378891  
H98      H      0.863640000000     0.017520000000     0.302650000000     0.0458629  
H99      H      0.809760000000     0.959690000000     0.251290000000     0.0378503  
H100     H      0.812150000000     0.009670000000     0.283040000000     0.0384011  
H101     H      0.720740000000     0.021950000000     0.232850000000     0.0461421  
H102     H      0.732340000000     0.074010000000     0.148480000000     0.041907   
H103     H      0.877080000000     0.967500000000     0.232590000000     0.037859   
H104     H      0.636910000000     0.063390000000     0.159000000000     0.0912025  
H105     H      0.659900000000     0.029140000000     0.156430000000     0.0809443  
H106     H      0.545540000000     0.318350000000     0.242010000000     0.0452336  
H107     H      0.435100000000     0.299820000000     0.274780000000     0.0363831  
H108     H      0.448460000000     0.390830000000     0.230220000000     0.0430866  
H109     H      0.588150000000     0.231540000000     0.207350000000     0.039138   
H110     H      0.386750000000     0.329880000000     0.275980000000     0.0410205  
H111     H      0.552100000000     0.317530000000     0.165940000000     0.0354306  
H112     H      0.534790000000     0.235860000000     0.220860000000     0.0357225  
H113     H      0.584250000000     0.280310000000     0.134690000000     0.0437555  
H114     H      0.416580000000     0.421320000000     0.266490000000     0.0202459  
H115     H      0.502150000000     0.346010000000     0.265470000000     0.0410469  
H116     H      0.402960000000     0.329150000000     0.310890000000     0.0454698  
H117     H      0.484030000000     0.279350000000     0.178580000000     0.041146   
H118     H      0.455130000000     0.333620000000     0.292100000000     0.038529   
H119     H      0.567120000000     0.198560000000     0.190370000000     0.0447675  
H120     H      0.531870000000     0.281430000000     0.152670000000     0.0371589  
H121     H      0.521930000000     0.233800000000     0.184630000000     0.0378861  
H122     H      0.440600000000     0.307210000000     0.201950000000     0.0460477  
H123     H      0.462550000000     0.387410000000     0.265850000000     0.0425553  
H124     H      0.600030000000     0.287350000000     0.169260000000     0.0392027  
H125     H      0.368020000000     0.398320000000     0.250140000000     0.0888817  
H126     H      0.393930000000     0.403610000000     0.223570000000     0.0802536  
H127     H      0.227940000000     0.050010000000     0.719580000000     0.0451044  
H128     H      0.309110000000     0.083310000000     0.791800000000     0.0360918  
H129     H      0.346820000000     0.040590000000     0.717240000000     0.0429109  
H130     H      0.159280000000     0.125930000000     0.700250000000     0.0386788  
H131     H      0.364080000000     0.077780000000     0.799050000000     0.0402026  
H132     H      0.235940000000     0.086500000000     0.653660000000     0.0352541  
H133     H      0.205080000000     0.136970000000     0.727190000000     0.0355175  
H134     H      0.198020000000     0.118930000000     0.624160000000     0.0429367  
H135     H      0.382560000000     0.005480000000     0.746660000000     0.0214714  
H136     H      0.273540000000     0.030870000000     0.745440000000     0.0407219  
H137     H      0.344400000000     0.048950000000     0.821820000000     0.0436523  
H138     H      0.274840000000     0.141430000000     0.697930000000     0.0409998  
H139     H      0.304800000000     0.038950000000     0.786170000000     0.037804   
H140     H      0.167330000000     0.169800000000     0.697730000000     0.0436392  
H141     H      0.240220000000     0.131240000000     0.656270000000     0.0372497  
H142     H      0.222370000000     0.160450000000     0.698780000000     0.0372054  
H143     H      0.320320000000     0.122580000000     0.724320000000     0.0457737  
H144     H      0.327580000000     0.013710000000     0.742040000000     0.0425418  
H145     H      0.180940000000     0.090200000000     0.648690000000     0.0393664  
H146     H      0.415370000000     0.051940000000     0.760280000000     0.088907   
H147     H      0.400100000000     0.056600000000     0.727400000000     0.0801784  
H148     H      0.556880000000     0.853100000000     0.683040000000     0.0448757  
H149     H      0.514890000000     0.837860000000     0.783510000000     0.036037   
H150     H      0.446510000000     0.846480000000     0.719880000000     0.0430805  
H151     H      0.628250000000     0.784990000000     0.654970000000     0.0379849  
H152     H      0.465820000000     0.837240000000     0.807590000000     0.0402239  
H153     H      0.533040000000     0.789480000000     0.636250000000     0.0351452  
H154     H      0.601530000000     0.781270000000     0.699760000000     0.0355192  
H155     H      0.563420000000     0.751730000000     0.604460000000     0.0429832  
H156     H      0.415870000000     0.884870000000     0.751320000000     0.0221257  
H157     H      0.520320000000     0.874820000000     0.718070000000     0.0410009  
H158     H      0.484900000000     0.875990000000     0.815230000000     0.0433547  
H159     H      0.527410000000     0.752570000000     0.701650000000     0.0412202  
H160     H      0.507330000000     0.878250000000     0.768030000000     0.0379888  
H161     H      0.632490000000     0.743300000000     0.668520000000     0.0439178  
H162     H      0.540780000000     0.749060000000     0.651620000000     0.0377367  
H163     H      0.580990000000     0.744250000000     0.688920000000     0.0381629  
H164     H      0.490850000000     0.774290000000     0.736700000000     0.0460406  
H165     H      0.466870000000     0.883240000000     0.731140000000     0.0431044  
H166     H      0.582220000000     0.790600000000     0.612340000000     0.0374757  
H167     H      0.398630000000     0.840400000000     0.782580000000     0.0911131  
H168     H      0.403280000000     0.827440000000     0.748590000000     0.0804446  
H169     H      0.465610000000     0.064410000000     0.954080000000     0.0416704  
H170     H      0.529860000000     0.069300000000     0.046320000000     0.036074   
H171     H      0.545990000000     0.151010000000     0.990930000000     0.0429543  
H172     H      0.503900000000     0.959410000000     0.905640000000     0.0375523  
H173     H      0.525240000000     0.119970000000     0.074130000000     0.0393987  
H174     H      0.509330000000     0.062920000000     0.893050000000     0.0353521  
H175     H      0.494210000000     0.984220000000     0.951660000000     0.0355998  
H176     H      0.479450000000     0.031970000000     0.856020000000     0.0431789  
H177     H      0.575760000000     0.180510000000     0.029070000000     0.0211924  
H178     H      0.479120000000     0.100560000000     0.994150000000     0.0460086  
H179     H      0.559270000000     0.097930000000     0.084840000000     0.0436293  
H180     H      0.560530000000     0.034810000000     0.946050000000     0.0448573  
H181     H      0.568920000000     0.079110000000     0.036490000000     0.0389091  
H182     H      0.464510000000     0.952230000000     0.915360000000     0.0450776  
H183     H      0.470360000000     0.053850000000     0.903660000000     0.038694   
H184     H      0.461340000000     0.006920000000     0.938470000000     0.0391909  
H185     H      0.574080000000     0.071080000000     0.986030000000     0.0411779  
H186     H      0.578320000000     0.127750000000     0.004120000000     0.0435782  
H187     H      0.513510000000     0.010420000000     0.867510000000     0.0370514  
H188     H      0.530640000000     0.194300000000     0.057060000000     0.0868559  
H189     H      0.523370000000     0.193650000000     0.021720000000     0.0801019  
H190     H      0.073610000000     0.803430000000     0.255930000000     0.0449179  
H191     H      0.077170000000     0.801810000000     0.147860000000     0.0363404  
H192     H      0.058310000000     0.707540000000     0.185260000000     0.0429561  
H193     H      0.023920000000     0.885390000000     0.292290000000     0.0362638  
H194     H      0.074510000000     0.761600000000     0.109680000000     0.0406997  
H195     H      0.997900000000     0.784750000000     0.282770000000     0.0356314  
H196     H      0.028810000000     0.873250000000     0.242240000000     0.0355684  
H197     H      0.962970000000     0.818550000000     0.313920000000     0.0455515  
H198     H      0.095120000000     0.679940000000     0.151360000000     0.0198429  
H199     H      0.094740000000     0.772840000000     0.215350000000     0.0410181  
H200     H      0.113630000000     0.775110000000     0.113740000000     0.0448952  
H201     H      0.985360000000     0.808000000000     0.214550000000     0.0417665  
H202     H      0.107950000000     0.779330000000     0.164970000000     0.038691   
H203     H      0.994830000000     0.907890000000     0.273180000000     0.0443634  
H204     H      0.970480000000     0.809590000000     0.263320000000     0.0391193  
H205     H      0.988750000000     0.862000000000     0.239450000000     0.0395463  
H206     H      0.006420000000     0.777140000000     0.174080000000     0.0461702  
H207     H      0.096840000000     0.723720000000     0.186490000000     0.0425541  
H208     H      0.003130000000     0.827230000000     0.319030000000     0.0372129  
H209     H      0.060860000000     0.684690000000     0.110940000000     0.0877964  
H210     H      0.041710000000     0.679460000000     0.141980000000     0.0800653  
H211     H      0.327710000000     0.804060000000     0.992250000000     0.0448901  
H212     H      0.300670000000     0.912920000000     0.940860000000     0.0362692  
H213     H      0.307020000000     0.828280000000     0.886930000000     0.0428593  
H214     H      0.271050000000     0.772390000000     0.064480000000     0.0368334  
H215     H      0.294450000000     0.932480000000     0.892620000000     0.039736   
H216     H      0.278100000000     0.738650000000     0.980610000000     0.0353543  
H217     H      0.260180000000     0.820740000000     0.035080000000     0.0358722  
H218     H      0.249800000000     0.700240000000     0.013170000000     0.044125   
H219     H      0.336960000000     0.861960000000     0.851570000000     0.0197417  
H220     H      0.340760000000     0.841430000000     0.952890000000     0.0412474  
H221     H      0.330500000000     0.947390000000     0.906170000000     0.0439345  
H222     H      0.231980000000     0.809360000000     0.968970000000     0.0416569  
H223     H      0.338220000000     0.896010000000     0.933200000000     0.0388191  
H224     H      0.231170000000     0.783310000000     0.068210000000     0.0459709  
H225     H      0.238680000000     0.751170000000     0.986150000000     0.0389588  
H226     H      0.228000000000     0.800030000000     0.018540000000     0.0392183  
H227     H      0.244960000000     0.847250000000     0.929920000000     0.0460591  
H228     H      0.341840000000     0.846060000000     0.900850000000     0.0431536  
H229     H      0.283000000000     0.719270000000     0.029100000000     0.0363606  
H230     H      0.293130000000     0.894970000000     0.836200000000     0.0859796  
H231     H      0.283290000000     0.855440000000     0.845890000000     0.0797072  
H232     H      0.217450000000     0.554160000000     0.273110000000     0.0446511  
H233     H      0.228720000000     0.550520000000     0.165550000000     0.0361993  
H234     H      0.260810000000     0.640080000000     0.203530000000     0.0430447  
H235     H      0.251260000000     0.467750000000     0.320640000000     0.0357008  
H236     H      0.245240000000     0.586160000000     0.127190000000     0.0403483  
H237     H      0.288090000000     0.562420000000     0.309640000000     0.0357379  
H238     H      0.253100000000     0.475350000000     0.269520000000     0.0354492  
H239     H      0.314290000000     0.527270000000     0.346240000000     0.0456047  
H240     H      0.236350000000     0.673670000000     0.164440000000     0.0202147  
H241     H      0.208070000000     0.585430000000     0.229230000000     0.0409721  
H242     H      0.204060000000     0.583400000000     0.126510000000     0.0450032  
H243     H      0.308870000000     0.530160000000     0.244200000000     0.0417162  
H244     H      0.201290000000     0.581010000000     0.177940000000     0.0383709  
H245     H      0.278600000000     0.439050000000     0.305630000000     0.0436909  
H246     H      0.315530000000     0.533640000000     0.294570000000     0.0400083  
H247     H      0.294290000000     0.480760000000     0.270260000000     0.0393772  
H248     H      0.299470000000     0.561400000000     0.200410000000     0.0462404  
H249     H      0.220160000000     0.633490000000     0.199560000000     0.0427054  
H250     H      0.273210000000     0.521990000000     0.345710000000     0.0362052  
H251     H      0.275040000000     0.658720000000     0.129550000000     0.0881784  
H252     H      0.289460000000     0.661060000000     0.162910000000     0.0805429  
H253     H      0.023080000000     0.336490000000     0.779560000000     0.0449161  
H254     H      0.019900000000     0.317050000000     0.672620000000     0.0358984  
H255     H      0.005900000000     0.229840000000     0.722080000000     0.0431984  
H256     H      0.970880000000     0.419900000000     0.811220000000     0.0371895  
H257     H      0.015590000000     0.271150000000     0.639610000000     0.0396179  
H258     H      0.952520000000     0.315490000000     0.813590000000     0.0354324  
H259     H      0.970580000000     0.400650000000     0.762810000000     0.0352175  
H260     H      0.918480000000     0.350010000000     0.845180000000     0.0447628  
H261     H      0.040660000000     0.197340000000     0.689520000000     0.0217972  
H262     H      0.042630000000     0.301240000000     0.741070000000     0.0412203  
H263     H      0.054750000000     0.285300000000     0.639990000000     0.0432835  
H264     H      0.931570000000     0.329160000000     0.745050000000     0.0410876  
H265     H      0.052250000000     0.298100000000     0.690310000000     0.0384423  
H266     H      0.936980000000     0.435670000000     0.794160000000     0.0443764  
H267     H      0.921180000000     0.335530000000     0.795250000000     0.0379247  
H268     H      0.931700000000     0.385300000000     0.765670000000     0.0376324  
H269     H      0.951120000000     0.293850000000     0.706560000000     0.046001   
H270     H      0.044020000000     0.246730000000     0.718710000000     0.0435814  
H271     H      0.958310000000     0.361760000000     0.845960000000     0.0379294  
H272     H      0.003170000000     0.194360000000     0.651460000000     0.0878906  
H273     H      0.986670000000     0.194310000000     0.684060000000     0.080439   
H274     H      0.718660000000     0.340170000000     0.968560000000     0.0450754  
H275     H      0.741010000000     0.294190000000     0.067610000000     0.0362625  
H276     H      0.733820000000     0.219640000000     0.004000000000     0.0429896  
H277     H      0.774440000000     0.423270000000     0.941020000000     0.0381277  
H278     H      0.744610000000     0.240220000000     0.090790000000     0.0394409  
H279     H      0.777080000000     0.321230000000     0.918660000000     0.0354989  
H280     H      0.781360000000     0.392750000000     0.984830000000     0.0355453  
H281     H      0.808500000000     0.358690000000     0.887400000000     0.0455335  
H282     H      0.701300000000     0.184420000000     0.036330000000     0.0212834  
H283     H      0.702860000000     0.298340000000     0.003620000000     0.041457   
H284     H      0.708980000000     0.259780000000     0.100510000000     0.0444385  
H285     H      0.813670000000     0.314370000000     0.982770000000     0.0413524  
H286     H      0.703520000000     0.284520000000     0.053480000000     0.0394208  
H287     H      0.812510000000     0.430970000000     0.954240000000     0.044219   
H288     H      0.814060000000     0.331740000000     0.933480000000     0.0387219  
H289     H      0.816600000000     0.373980000000     0.972430000000     0.0382976  
H290     H      0.797860000000     0.272530000000     0.017890000000     0.0458551  
H291     H      0.699350000000     0.239940000000     0.016060000000     0.0437266  
H292     H      0.771790000000     0.375860000000     0.897050000000     0.0384302  
H293     H      0.743660000000     0.168780000000     0.067120000000     0.0864586  
H294     H      0.754690000000     0.174140000000     0.032900000000     0.0799054  
H295     H      0.733310000000     0.618190000000     0.723980000000     0.0415881  
H296     H      0.748200000000     0.521000000000     0.798060000000     0.0361412  
H297     H      0.830060000000     0.561250000000     0.762990000000     0.043072   
H298     H      0.670830000000     0.564850000000     0.646390000000     0.0377401  
H299     H      0.781050000000     0.534820000000     0.837600000000     0.0399942  
H300     H      0.763300000000     0.593770000000     0.657910000000     0.0352591  
H301     H      0.678710000000     0.568130000000     0.697060000000     0.0357245  
H302     H      0.735250000000     0.625280000000     0.620190000000     0.04342    
H303     H      0.861400000000     0.531000000000     0.799710000000     0.0218746  
H304     H      0.760960000000     0.603240000000     0.767420000000     0.0462598  
H305     H      0.778910000000     0.490160000000     0.834630000000     0.0432832  
H306     H      0.749470000000     0.519290000000     0.690890000000     0.0447659  
H307     H      0.776490000000     0.493010000000     0.783280000000     0.0376442  
H308     H      0.649680000000     0.599950000000     0.659920000000     0.0455016  
H309     H      0.739410000000     0.626780000000     0.671840000000     0.0389382  
H310     H      0.689370000000     0.611650000000     0.694990000000     0.0389613  
H311     H      0.777860000000     0.504650000000     0.734020000000     0.0408576  
H312     H      0.824560000000     0.516710000000     0.763260000000     0.0429282  
H313     H      0.726690000000     0.581320000000     0.620630000000     0.0370236  
H314     H      0.846790000000     0.568330000000     0.838000000000     0.090705   
H315     H      0.848610000000     0.587990000000     0.806160000000     0.0807692  
H316     H      0.064390000000     0.586730000000     0.936480000000     0.0447876  
H317     H      0.946800000000     0.579430000000     0.949940000000     0.0359781  
H318     H      0.995710000000     0.489200000000     0.964440000000     0.0431344  
H319     H      0.115320000000     0.665450000000     0.979340000000     0.0368809  
H320     H      0.908820000000     0.536590000000     0.959550000000     0.0406201  
H321     H      0.105630000000     0.563780000000     0.997890000000     0.0356626  
H322     H      0.060200000000     0.655990000000     0.982650000000     0.0353983  
H323     H      0.146560000000     0.593190000000     0.025520000000     0.0467708  
H324     H      0.955550000000     0.457120000000     0.937520000000     0.0201127  
H325     H      0.017670000000     0.555570000000     0.924070000000     0.0408964  
H326     H      0.906350000000     0.548240000000     0.922930000000     0.0422353  
H327     H      0.035340000000     0.589610000000     0.023640000000     0.0411288  
H328     H      0.961870000000     0.556680000000     0.920050000000     0.0377664  
H329     H      0.100590000000     0.686610000000     0.010040000000     0.0440771  
H330     H      0.090620000000     0.586520000000     0.027830000000     0.0388935  
H331     H      0.063470000000     0.641650000000     0.018710000000     0.0381671  
H332     H      0.988710000000     0.558320000000     0.011260000000     0.0461237  
H333     H      0.990130000000     0.503250000000     0.928690000000     0.0426008  
H334     H      0.144490000000     0.606190000000     0.989170000000     0.0374856  
H335     H      0.916990000000     0.461280000000     0.974570000000     0.0891198  
H336     H      0.953460000000     0.459420000000     0.987440000000     0.0802374  
In1      In     0.872660000000     0.452410000000     0.873580000000     2.39243    
In2      In     0.174120000000     0.684470000000     0.083090000000     2.40811    
In3      In     0.404040000000     0.951570000000     0.832920000000     2.39119    
In4      In     0.633190000000     0.177150000000     0.113310000000     2.40754    
In5      In     0.370890000000     0.427530000000     0.356810000000     2.40352    
In6      In     0.646340000000     0.678670000000     0.585570000000     2.39539    
In7      In     0.911560000000     0.919440000000     0.335890000000     2.40897    
In8      In     0.110500000000     0.189030000000     0.613440000000     2.40323    
N1       N      0.966150000000     0.966050000000     0.393430000000    -0.179196   
N2       N      0.996150000000     0.001310000000     0.437000000000    -0.106414   
N3       N      0.022810000000     0.084490000000     0.531800000000    -0.113598   
N4       N      0.052450000000     0.128460000000     0.569510000000    -0.169504   
N5       N      0.007080000000     0.999920000000     0.375010000000    -0.190776   
N6       N      0.711550000000     0.722570000000     0.536300000000    -0.180383   
N7       N      0.750430000000     0.756730000000     0.498400000000    -0.10641    
N8       N      0.798600000000     0.839070000000     0.410420000000    -0.113644   
N9       N      0.838840000000     0.875410000000     0.375240000000    -0.169141   
N10      N      0.754180000000     0.688030000000     0.522690000000    -0.190983   
N11      N      0.160560000000     0.250180000000     0.562460000000    -0.179185   
N12      N      0.198430000000     0.290140000000     0.527920000000    -0.106408   
N13      N      0.298330000000     0.345910000000     0.465620000000    -0.11349    
N14      N      0.333720000000     0.377810000000     0.423590000000    -0.167829   
N15      N      0.144260000000     0.307490000000     0.563960000000    -0.190856   
N16      N      0.582700000000     0.628890000000     0.538550000000    -0.179492   
N17      N      0.543230000000     0.592160000000     0.502990000000    -0.106482   
N18      N      0.491770000000     0.509000000000     0.417160000000    -0.113701   
N19      N      0.449520000000     0.471550000000     0.384960000000    -0.169136   
N20      N      0.536910000000     0.660140000000     0.528340000000    -0.191004   
N21      N      0.678640000000     0.109210000000     0.161720000000    -0.179651   
N22      N      0.719040000000     0.067030000000     0.191640000000    -0.106565   
N23      N      0.826360000000     0.008210000000     0.239710000000    -0.113582   
N24      N      0.866990000000     0.973970000000     0.275940000000    -0.168612   
N25      N      0.658380000000     0.053480000000     0.164390000000    -0.190688   
N26      N      0.404570000000     0.376540000000     0.289090000000    -0.179585   
N27      N      0.441690000000     0.343110000000     0.249260000000    -0.106651   
N28      N      0.543980000000     0.279510000000     0.196520000000    -0.113388   
N29      N      0.582450000000     0.238630000000     0.163390000000    -0.168212   
N30      N      0.388830000000     0.389750000000     0.241730000000    -0.190558   
N31      N      0.367990000000     0.027420000000     0.785980000000    -0.179886   
N32      N      0.327270000000     0.065650000000     0.752730000000    -0.106751   
N33      N      0.220350000000     0.107500000000     0.692450000000    -0.113287   
N34      N      0.175530000000     0.140910000000     0.660110000000    -0.169088   
N35      N      0.395040000000     0.056200000000     0.749030000000    -0.190576   
N36      N      0.446070000000     0.878880000000     0.786940000000    -0.178406   
N37      N      0.481140000000     0.837710000000     0.750890000000    -0.10658    
N38      N      0.566700000000     0.789700000000     0.668950000000    -0.113494   
N39      N      0.602130000000     0.748990000000     0.632840000000    -0.169854   
N40      N      0.414830000000     0.835570000000     0.766740000000    -0.190849   
N41      N      0.566440000000     0.142890000000     0.060460000000    -0.180137   
N42      N      0.534290000000     0.109530000000     0.017100000000    -0.106648   
N43      N      0.505120000000     0.024540000000     0.924020000000    -0.113652   
N44      N      0.472330000000     0.988770000000     0.882520000000    -0.16925    
N45      N      0.528730000000     0.178860000000     0.039290000000    -0.190601   
N46      N      0.103480000000     0.724990000000     0.127790000000    -0.179934   
N47      N      0.063760000000     0.755850000000     0.166940000000    -0.10658    
N48      N      0.016970000000     0.827200000000     0.262020000000    -0.113641   
N49      N      0.979250000000     0.865750000000     0.297810000000    -0.168909   
N50      N      0.055230000000     0.696000000000     0.130200000000    -0.190526   
N51      N      0.333040000000     0.907700000000     0.875290000000    -0.181205   
N52      N      0.300330000000     0.869240000000     0.915110000000    -0.106694   
N53      N      0.272450000000     0.781570000000     0.006740000000    -0.113701   
N54      N      0.240900000000     0.738770000000     0.044070000000    -0.169307   
N55      N      0.291120000000     0.878550000000     0.853320000000    -0.190487   
N56      N      0.222990000000     0.630420000000     0.140450000000    -0.179497   
N57      N      0.248540000000     0.593250000000     0.185250000000    -0.10658    
N58      N      0.268150000000     0.521200000000     0.287790000000    -0.113915   
N59      N      0.297500000000     0.481020000000     0.328500000000    -0.169666   
N60      N      0.274990000000     0.647450000000     0.149510000000    -0.190557   
N61      N      0.046040000000     0.237850000000     0.660080000000    -0.179336   
N62      N      0.008780000000     0.274530000000     0.697690000000    -0.106551   
N63      N      0.965640000000     0.356790000000     0.787880000000    -0.113515   
N64      N      0.929920000000     0.396370000000     0.824610000000    -0.168388   
N65      N      0.998820000000     0.208830000000     0.669440000000    -0.190587   
N66      N      0.705690000000     0.218220000000     0.071520000000    -0.179977   
N67      N      0.741050000000     0.257960000000     0.034600000000    -0.106751   
N68      N      0.775470000000     0.355860000000     0.952820000000    -0.113536   
N69      N      0.809270000000     0.399110000000     0.917550000000    -0.167468   
N70      N      0.746880000000     0.186420000000     0.051070000000    -0.190655   
N71      N      0.821890000000     0.512750000000     0.822200000000    -0.179575   
N72      N      0.787180000000     0.545160000000     0.780040000000    -0.106536   
N73      N      0.722580000000     0.577140000000     0.678570000000    -0.113549   
N74      N      0.690410000000     0.611510000000     0.635790000000    -0.16833    
N75      N      0.836420000000     0.570430000000     0.818120000000    -0.190727   
N76      N      0.926280000000     0.499930000000     0.931640000000    -0.181651   
N77      N      0.972250000000     0.535770000000     0.960630000000    -0.106558   
N78      N      0.081350000000     0.608300000000     0.987310000000    -0.113828   
N79      N      0.127370000000     0.642130000000     0.017860000000    -0.16844    
N80      N      0.937790000000     0.474240000000     0.976270000000    -0.190599   
O1       O      0.896110000000     0.403070000000     0.861770000000    -0.493222   
O2       O      0.904920000000     0.445350000000     0.835940000000    -0.501641   
O3       O      0.842760000000     0.443330000000     0.912290000000    -0.506181   
O4       O      0.886950000000     0.498580000000     0.898960000000    -0.508002   
O5       O      0.867870000000     0.493670000000     0.840350000000    -0.492773   
O6       O      0.911800000000     0.453720000000     0.905790000000    -0.514533   
O7       O      0.839850000000     0.408320000000     0.878420000000    -0.491458   
O8       O      0.827010000000     0.470590000000     0.855110000000    -0.504592   
O9       O      0.202490000000     0.732090000000     0.077200000000    -0.49644    
O10      O      0.212300000000     0.690880000000     0.050410000000    -0.512875   
O11      O      0.134380000000     0.680840000000     0.114520000000    -0.514397   
O12      O      0.139970000000     0.686670000000     0.046510000000    -0.509329   
O13      O      0.206600000000     0.680130000000     0.120880000000    -0.512417   
O14      O      0.162020000000     0.640260000000     0.054720000000    -0.492439   
O15      O      0.144150000000     0.728400000000     0.096660000000    -0.498485   
O16      O      0.189650000000     0.635180000000     0.102750000000    -0.495484   
O17      O      0.375190000000     0.998930000000     0.827840000000    -0.504823   
O18      O      0.397450000000     0.979900000000     0.791310000000    -0.498179   
O19      O      0.433660000000     0.951170000000     0.872660000000    -0.501286   
O20      O      0.369290000000     0.909350000000     0.839780000000    -0.511704   
O21      O      0.407580000000     0.917640000000     0.794250000000    -0.489002   
O22      O      0.367710000000     0.950420000000     0.867970000000    -0.499804   
O23      O      0.442510000000     0.989000000000     0.842150000000    -0.508254   
O24      O      0.442600000000     0.913950000000     0.825510000000    -0.502637   
O25      O      0.612310000000     0.228090000000     0.124040000000    -0.498171   
O26      O      0.602420000000     0.187250000000     0.151320000000    -0.503648   
O27      O      0.603460000000     0.181070000000     0.073660000000    -0.509417   
O28      O      0.667880000000     0.178370000000     0.077080000000    -0.508614   
O29      O      0.658990000000     0.161700000000     0.153100000000    -0.505115   
O30      O      0.670720000000     0.216580000000     0.108150000000    -0.502575   
O31      O      0.596430000000     0.139260000000     0.100560000000    -0.504353   
O32      O      0.653450000000     0.125130000000     0.120920000000    -0.501597   
O33      O      0.351620000000     0.380800000000     0.377800000000    -0.493896   
O34      O      0.352440000000     0.425490000000     0.402120000000    -0.504363   
O35      O      0.390240000000     0.425060000000     0.311890000000    -0.50881    
O36      O      0.325520000000     0.432410000000     0.332850000000    -0.512469   
O37      O      0.415390000000     0.427520000000     0.382560000000    -0.508852   
O38      O      0.342550000000     0.475540000000     0.353780000000    -0.499813   
O39      O      0.385470000000     0.379510000000     0.334500000000    -0.49462    
O40      O      0.404600000000     0.471220000000     0.359090000000    -0.498584   
O41      O      0.617900000000     0.632370000000     0.574880000000    -0.502112   
O42      O      0.612630000000     0.675010000000     0.548590000000    -0.498999   
O43      O      0.641360000000     0.711300000000     0.625100000000    -0.502982   
O44      O      0.647170000000     0.640120000000     0.621200000000    -0.492662   
O45      O      0.678010000000     0.722070000000     0.574070000000    -0.509831   
O46      O      0.689250000000     0.650770000000     0.600140000000    -0.50613    
O47      O      0.606980000000     0.715380000000     0.593510000000    -0.507054   
O48      O      0.678600000000     0.679320000000     0.547420000000    -0.504168   
O49      O      0.888340000000     0.925070000000     0.292750000000    -0.50649    
O50      O      0.889720000000     0.967570000000     0.319620000000    -0.497975   
O51      O      0.877720000000     0.876350000000     0.342090000000    -0.500447   
O52      O      0.937350000000     0.870640000000     0.327440000000    -0.497709   
O53      O      0.936970000000     0.964960000000     0.352780000000    -0.49901    
O54      O      0.952480000000     0.914430000000     0.306150000000    -0.510739   
O55      O      0.873410000000     0.918490000000     0.369090000000    -0.509447   
O56      O      0.939350000000     0.920210000000     0.376950000000    -0.506258   
O57      O      0.138410000000     0.236490000000     0.605290000000    -0.501645   
O58      O      0.134040000000     0.201490000000     0.571690000000    -0.503279   
O59      O      0.136490000000     0.179380000000     0.654670000000    -0.504851   
O60      O      0.075180000000     0.191490000000     0.649070000000    -0.504271   
O61      O      0.075290000000     0.179300000000     0.578630000000    -0.505778   
O62      O      0.082670000000     0.235490000000     0.624870000000    -0.500091   
O63      O      0.150420000000     0.152280000000     0.618260000000    -0.505041   
O64      O      0.088630000000     0.138180000000     0.604210000000    -0.503465   


