data_structure

_audit_creation_method RASPA-1.0
_audit_creation_date 2023-6-5
_audit_author_name 'Poobodin Mano'

_cell_length_a    55.7969
_cell_length_b    55.8632
_cell_length_c    29.7543
_cell_angle_alpha 89.7777
_cell_angle_beta  90.2223
_cell_angle_gamma 89.9997
_cell_volume      92742.6

_symmetry_cell_setting          triclinic
_symmetry_space_group_name_Hall 'P 1'
_symmetry_space_group_name_H-M  'P 1'
_symmetry_Int_Tables_number     1

_symmetry_equiv_pos_as_xyz 'x,y,z'

loop_
_atom_site_label
_atom_site_type_symbol
_atom_site_fract_x
_atom_site_fract_y
_atom_site_fract_z
_atom_site_charge
C1       C      0.330800000000     0.381090000000     0.019500000000     0.411113   
C2       C      0.308240000000     0.312740000000     0.938060000000     0.41061    
C3       C      0.377120000000     0.323710000000     0.993950000000     0.407785   
C4       C      0.307050000000     0.315730000000     0.082260000000     0.40396    
C5       C      0.328580000000     0.631070000000     0.001360000000     0.401837   
C6       C      0.306800000000     0.704810000000     0.043010000000     0.409463   
C7       C      0.381990000000     0.678780000000     0.991530000000     0.406334   
C8       C      0.318730000000     0.696580000000     0.906580000000     0.404901   
C9       C      0.626870000000     0.323710000000     0.986140000000     0.409446   
C10      C      0.685990000000     0.308510000000     0.912340000000     0.407212   
C11      C      0.689050000000     0.370850000000     0.017120000000     0.40569    
C12      C      0.697950000000     0.299760000000     0.057450000000     0.410936   
C13      C      0.689880000000     0.618820000000     0.015580000000     0.416554   
C14      C      0.698030000000     0.689400000000     0.936620000000     0.411895   
C15      C      0.632170000000     0.664280000000     0.010420000000     0.413838   
C16      C      0.702210000000     0.691270000000     0.075350000000     0.405296   
C17      C      0.828440000000     0.127780000000     0.493680000000     0.407504   
C18      C      0.805350000000     0.201130000000     0.557210000000     0.407044   
C19      C      0.877520000000     0.185960000000     0.523740000000     0.409971   
C20      C      0.812760000000     0.187990000000     0.417920000000     0.410639   
C21      C      0.880040000000     0.823180000000     0.518430000000     0.409964   
C22      C      0.809730000000     0.808310000000     0.578830000000     0.404255   
C23      C      0.830250000000     0.877540000000     0.502210000000     0.409834   
C24      C      0.812070000000     0.809770000000     0.434690000000     0.412819   
C25      C      0.129300000000     0.824540000000     0.498560000000     0.406025   
C26      C      0.193670000000     0.813430000000     0.405790000000     0.403187   
C27      C      0.179410000000     0.878960000000     0.485780000000     0.411386   
C28      C      0.204310000000     0.805550000000     0.542650000000     0.411341   
C29      C      0.124830000000     0.184150000000     0.529740000000     0.405384   
C30      C      0.194940000000     0.199570000000     0.575730000000     0.402073   
C31      C      0.176810000000     0.129210000000     0.497520000000     0.401113   
C32      C      0.190880000000     0.196650000000     0.433960000000     0.412645   
C33      C      0.176880000000     0.942490000000     0.444690000000    -0.0302251  
C34      C      0.186610000000     0.065530000000     0.527560000000    -0.0306974  
C35      C      0.174190000000     0.093950000000     0.448300000000    -0.00529713 
C36      C      0.194670000000     0.091640000000     0.524850000000    -0.00503756 
C37      C      0.200780000000     0.015380000000     0.466050000000    -0.0515853  
C38      C      0.160020000000     0.993800000000     0.502710000000    -0.0517564  
C39      C      0.182360000000     0.029730000000     0.482940000000     0.0631932  
C40      C      0.167200000000     0.067640000000     0.454540000000    -0.0305633  
C41      C      0.178550000000     0.979420000000     0.486120000000     0.0630001  
C42      C      0.194810000000     0.943160000000     0.518210000000    -0.0246037  
C43      C      0.198970000000     0.990460000000     0.467530000000    -0.0540557  
C44      C      0.190180000000     0.916290000000     0.526700000000    -0.0107557  
C45      C      0.169360000000     0.916380000000     0.448720000000    -0.0037284  
C46      C      0.161840000000     0.018760000000     0.501180000000    -0.0548354  
C47      C      0.943520000000     0.805950000000     0.491360000000    -0.0300636  
C48      C      0.069090000000     0.830370000000     0.549910000000    -0.0304447  
C49      C      0.090950000000     0.808530000000     0.471090000000    -0.00511111 
C50      C      0.095550000000     0.823150000000     0.551610000000    -0.00517104 
C51      C      0.016410000000     0.797970000000     0.536440000000    -0.0513018  
C52      C      0.993980000000     0.840630000000     0.510410000000    -0.0519625  
C53      C      0.030360000000     0.817360000000     0.522160000000     0.0634809  
C54      C      0.064800000000     0.816500000000     0.473100000000    -0.0303341  
C55      C      0.980000000000     0.821090000000     0.523970000000     0.0631817  
C56      C      0.943380000000     0.820550000000     0.567070000000    -0.0243648  
C57      C      0.991450000000     0.799740000000     0.537460000000    -0.0542529  
C58      C      0.916480000000     0.826940000000     0.565820000000    -0.0150887  
C59      C      0.917440000000     0.812500000000     0.482710000000    -0.00311097 
C60      C      0.018970000000     0.838870000000     0.509510000000    -0.0548607  
C61      C      0.834420000000     0.064790000000     0.450770000000    -0.0303243  
C62      C      0.819100000000     0.941250000000     0.531980000000    -0.0304431  
C63      C      0.837710000000     0.913540000000     0.456790000000    -0.00467483 
C64      C      0.811700000000     0.915030000000     0.527180000000    -0.00445351 
C65      C      0.809650000000     0.991320000000     0.464460000000    -0.0511995  
C66      C      0.845710000000     0.013610000000     0.514700000000    -0.0512451  
C67      C      0.826080000000     0.977310000000     0.488570000000     0.0640667  
C68      C      0.843880000000     0.939810000000     0.465340000000    -0.0301792  
C69      C      0.829060000000     0.027650000000     0.491060000000     0.0632433  
C70      C      0.808930000000     0.063410000000     0.515510000000    -0.0246509  
C71      C      0.811080000000     0.016260000000     0.465520000000    -0.0534956  
C72      C      0.812170000000     0.090200000000     0.526000000000    -0.0104026  
C73      C      0.840920000000     0.091030000000     0.457440000000    -0.0032688  
C74      C      0.844350000000     0.988620000000     0.513440000000    -0.0548034  
C75      C      0.938190000000     0.180100000000     0.579430000000    -0.0304652  
C76      C      0.062640000000     0.204910000000     0.515250000000    -0.030329   
C77      C      0.089620000000     0.173540000000     0.575560000000    -0.00494045 
C78      C      0.089140000000     0.209970000000     0.524360000000    -0.00565118 
C79      C      0.011980000000     0.204660000000     0.581360000000    -0.0512839  
C80      C      0.989780000000     0.177670000000     0.514050000000    -0.0513394  
C81      C      0.026080000000     0.191830000000     0.550980000000     0.0633939  
C82      C      0.063040000000     0.170040000000     0.564430000000    -0.0308472  
C83      C      0.975680000000     0.190610000000     0.544290000000     0.0633954  
C84      C      0.939860000000     0.213530000000     0.528830000000    -0.0237517  
C85      C      0.987000000000     0.204120000000     0.578180000000    -0.0540989  
C86      C      0.913320000000     0.211370000000     0.514790000000    -0.0105457  
C87      C      0.912060000000     0.174300000000     0.568660000000    -0.00139054 
C88      C      0.014780000000     0.178220000000     0.517240000000    -0.0545154  
C89      C      0.743360000000     0.712090000000     0.854930000000    -0.0288871  
C90      C      0.761320000000     0.789190000000     0.657190000000    -0.0307114  
C91      C      0.812850000000     0.782590000000     0.645620000000    -0.00634052 
C92      C      0.775480000000     0.807860000000     0.630490000000    -0.0048708  
C93      C      0.764110000000     0.770980000000     0.769010000000    -0.0506027  
C94      C      0.738790000000     0.729980000000     0.743540000000    -0.0507884  
C95      C      0.763700000000     0.764180000000     0.723810000000     0.0642011  
C96      C      0.796750000000     0.765210000000     0.671340000000    -0.0296231  
C97      C      0.739270000000     0.736740000000     0.788840000000     0.064229   
C98      C      0.707600000000     0.735510000000     0.843790000000    -0.0244295  
C99      C      0.752060000000     0.757450000000     0.801340000000    -0.0534005  
C100     C      0.692390000000     0.719120000000     0.874320000000    -0.0110052  
C101     C      0.730430000000     0.693300000000     0.882910000000    -0.00623201 
C102     C      0.750910000000     0.743530000000     0.711160000000    -0.053917   
C103     C      0.799780000000     0.766160000000     0.341710000000    -0.0301297  
C104     C      0.715160000000     0.739350000000     0.158600000000    -0.0303539  
C105     C      0.735460000000     0.693850000000     0.129260000000    -0.00481006 
C106     C      0.709110000000     0.730120000000     0.111550000000    -0.00515508 
C107     C      0.769420000000     0.755620000000     0.209170000000    -0.0510468  
C108     C      0.745650000000     0.751990000000     0.291500000000    -0.0512377  
C109     C      0.748020000000     0.742640000000     0.211820000000     0.0639107  
C110     C      0.739940000000     0.704830000000     0.175480000000    -0.03036    
C111     C      0.767070000000     0.765000000000     0.288830000000     0.0634927  
C112     C      0.778260000000     0.802230000000     0.324020000000    -0.0245477  
C113     C      0.778960000000     0.766680000000     0.247220000000    -0.053668   
C114     C      0.784750000000     0.814250000000     0.369030000000    -0.0104441  
C115     C      0.806410000000     0.774440000000     0.388820000000    -0.00377238 
C116     C      0.736180000000     0.740790000000     0.253400000000    -0.0544427  
C117     C      0.760750000000     0.213440000000     0.648250000000    -0.0289268  
C118     C      0.716650000000     0.304730000000     0.803810000000    -0.030449   
C119     C      0.687200000000     0.274060000000     0.860810000000    -0.00528245 
C120     C      0.697200000000     0.315810000000     0.833310000000    -0.00506294 
C121     C      0.715870000000     0.264630000000     0.715200000000    -0.0506431  
C122     C      0.764150000000     0.255160000000     0.733660000000    -0.0509001  
C123     C      0.725340000000     0.270320000000     0.757450000000     0.0640714  
C124     C      0.707010000000     0.264570000000     0.830300000000    -0.030137   
C125     C      0.754600000000     0.249150000000     0.691590000000     0.0643934  
C126     C      0.772830000000     0.251500000000     0.618140000000    -0.0241693  
C127     C      0.730300000000     0.254160000000     0.682440000000    -0.0535615  
C128     C      0.792060000000     0.240400000000     0.587410000000    -0.0100926  
C129     C      0.779830000000     0.199680000000     0.622770000000    -0.00530397 
C130     C      0.749710000000     0.265690000000     0.766410000000    -0.0539713  
C131     C      0.746560000000     0.265030000000     0.116590000000    -0.0302062  
C132     C      0.767440000000     0.210350000000     0.337740000000    -0.030615   
C133     C      0.818350000000     0.198420000000     0.338020000000    -0.00372984 
C134     C      0.776820000000     0.191160000000     0.370030000000    -0.00388228 
C135     C      0.763000000000     0.214150000000     0.223050000000    -0.0513056  
C136     C      0.757320000000     0.263600000000     0.232960000000    -0.0504422  
C137     C      0.771550000000     0.225330000000     0.261960000000     0.0643026  
C138     C      0.807120000000     0.217230000000     0.306850000000    -0.0309857  
C139     C      0.748530000000     0.252380000000     0.194220000000     0.0634456  
C140     C      0.710360000000     0.259680000000     0.158810000000    -0.024656   
C141     C      0.751550000000     0.227460000000     0.189450000000    -0.0533917  
C142     C      0.695940000000     0.277420000000     0.129590000000    -0.0103014  
C143     C      0.735610000000     0.284000000000     0.085830000000    -0.00356759 
C144     C      0.768730000000     0.250250000000     0.266670000000    -0.0542785  
C145     C      0.690360000000     0.556230000000     0.062420000000    -0.0285371  
C146     C      0.709340000000     0.431640000000     0.994960000000    -0.0310903  
C147     C      0.685990000000     0.405660000000     0.067850000000    -0.00459257 
C148     C      0.715730000000     0.405440000000     0.004070000000    -0.00441279 
C149     C      0.716230000000     0.483870000000     0.052850000000    -0.0508965  
C150     C      0.679190000000     0.503880000000     0.001430000000    -0.0503394  
C151     C      0.699610000000     0.468830000000     0.031760000000     0.0638283  
C152     C      0.680790000000     0.431940000000     0.056840000000    -0.0310363  
C153     C      0.695610000000     0.518950000000     0.023060000000     0.0649837  
C154     C      0.712450000000     0.555510000000     0.993390000000    -0.0233078  
C155     C      0.714400000000     0.508710000000     0.048450000000    -0.0539774  
C156     C      0.706870000000     0.581920000000     0.982080000000    -0.0102675  
C157     C      0.681970000000     0.581920000000     0.055730000000    -0.0044466  
C158     C      0.681180000000     0.479020000000     0.005440000000    -0.0533022  
C159     C      0.256220000000     0.788720000000     0.617810000000    -0.0290337  
C160     C      0.278520000000     0.708930000000     0.810060000000    -0.0311823  
C161     C      0.324830000000     0.725080000000     0.844320000000    -0.00404305 
C162     C      0.293600000000     0.692000000000     0.839060000000    -0.00394978 
C163     C      0.286750000000     0.734190000000     0.705460000000    -0.0511718  
C164     C      0.250630000000     0.766750000000     0.727530000000    -0.0506009  
C165     C      0.281460000000     0.738400000000     0.750690000000     0.0638715  
C166     C      0.308310000000     0.740490000000     0.814920000000    -0.0309081  
C167     C      0.255740000000     0.762340000000     0.682250000000     0.0638893  
C168     C      0.227460000000     0.756890000000     0.621770000000    -0.0238079  
C169     C      0.274060000000     0.745990000000     0.671440000000    -0.0537586  
C170     C      0.209180000000     0.769810000000     0.591260000000    -0.010722   
C171     C      0.240090000000     0.804730000000     0.589160000000    -0.00479818 
C172     C      0.263340000000     0.754930000000     0.761590000000    -0.0541532  
C173     C      0.256850000000     0.722300000000     0.121200000000    -0.0303024  
C174     C      0.234400000000     0.804120000000     0.309170000000    -0.0308089  
C175     C      0.189950000000     0.784160000000     0.344640000000    -0.00433979 
C176     C      0.218300000000     0.819770000000     0.338390000000    -0.00453549 
C177     C      0.226410000000     0.777550000000     0.205170000000    -0.0513915  
C178     C      0.265200000000     0.747850000000     0.226540000000    -0.0510371  
C179     C      0.233120000000     0.774440000000     0.250190000000     0.0637187  
C180     C      0.207420000000     0.770210000000     0.315180000000    -0.0307556  
C181     C      0.258490000000     0.750970000000     0.181480000000     0.0634593  
C182     C      0.283860000000     0.755600000000     0.116520000000    -0.0240498  
C183     C      0.238920000000     0.765970000000     0.171010000000    -0.0539228  
C184     C      0.301510000000     0.742440000000     0.085460000000    -0.0108356  
C185     C      0.272620000000     0.705990000000     0.092980000000    -0.00265838 
C186     C      0.252660000000     0.759450000000     0.260740000000    -0.0544059  
C187     C      0.568740000000     0.670420000000     0.051300000000    -0.0296434  
C188     C      0.446290000000     0.670150000000     0.960230000000    -0.0310962  
C189     C      0.417900000000     0.684010000000     0.038240000000    -0.00408715 
C190     C      0.419730000000     0.663580000000     0.961230000000    -0.00354631 
C191     C      0.494130000000     0.652170000000     0.026980000000    -0.0511279  
C192     C      0.519710000000     0.690180000000     0.988890000000    -0.0513741  
C193     C      0.481680000000     0.671310000000     0.007380000000     0.063323   
C194     C      0.444610000000     0.689420000000     0.032740000000    -0.0308475  
C195     C      0.532190000000     0.670850000000     0.007930000000     0.0638415  
C196     C      0.567170000000     0.650490000000     0.980060000000    -0.0235801  
C197     C      0.519140000000     0.651890000000     0.027430000000    -0.0544039  
C198     C      0.594380000000     0.652640000000     0.972240000000    -0.0154845  
C199     C      0.595450000000     0.675700000000     0.048020000000    -0.00303464 
C200     C      0.494640000000     0.690520000000     0.988670000000    -0.0541611  
C201     C      0.295630000000     0.269310000000     0.845220000000    -0.0300795  
C202     C      0.209900000000     0.244880000000     0.662960000000    -0.0307677  
C203     C      0.228890000000     0.199860000000     0.628470000000    -0.00484747 
C204     C      0.203330000000     0.237190000000     0.615210000000    -0.00493979 
C205     C      0.264200000000     0.259600000000     0.713170000000    -0.0514143  
C206     C      0.241340000000     0.253510000000     0.795920000000    -0.0515799  
C207     C      0.243140000000     0.246070000000     0.715460000000     0.0634826  
C208     C      0.234060000000     0.209430000000     0.675600000000    -0.0306812  
C209     C      0.262370000000     0.267170000000     0.793590000000     0.0632435  
C210     C      0.271700000000     0.304290000000     0.830770000000    -0.0247434  
C211     C      0.273810000000     0.270060000000     0.751760000000    -0.0539254  
C212     C      0.278220000000     0.315940000000     0.876120000000    -0.0107757  
C213     C      0.302440000000     0.277320000000     0.892400000000    -0.00412415 
C214     C      0.231760000000     0.242970000000     0.757250000000    -0.0547364  
C215     C      0.237140000000     0.226470000000     0.363520000000    -0.0298097  
C216     C      0.258180000000     0.289470000000     0.150350000000    -0.0303952  
C217     C      0.308930000000     0.301050000000     0.160310000000    -0.00566255 
C218     C      0.268940000000     0.309700000000     0.122120000000    -0.00545392 
C219     C      0.250270000000     0.281740000000     0.264820000000    -0.0512489  
C220     C      0.244610000000     0.232800000000     0.248350000000    -0.0515613  
C221     C      0.259090000000     0.272000000000     0.224910000000     0.0636155  
C222     C      0.296310000000     0.281230000000     0.186800000000    -0.0303366  
C223     C      0.235850000000     0.242540000000     0.288390000000     0.0632558  
C224     C      0.199050000000     0.233510000000     0.327370000000    -0.0249965  
C225     C      0.238750000000     0.267240000000     0.296350000000    -0.0536719  
C226     C      0.185960000000     0.215130000000     0.357440000000    -0.0112386  
C227     C      0.227130000000     0.206590000000     0.393010000000    -0.005257   
C228     C      0.256150000000     0.247350000000     0.216760000000    -0.0546448  
C229     C      0.564230000000     0.299980000000     0.998340000000    -0.0290832  
C230     C      0.439460000000     0.336330000000     0.961720000000    -0.0310825  
C231     C      0.412710000000     0.298280000000     0.006500000000    -0.00408941 
C232     C      0.413220000000     0.332060000000     0.949210000000    -0.00372191 
C233     C      0.490850000000     0.302900000000     0.950930000000    -0.0510387  
C234     C      0.511910000000     0.332730000000     0.015200000000    -0.0505091  
C235     C      0.476240000000     0.315730000000     0.980430000000     0.0640226  
C236     C      0.439070000000     0.303870000000     0.016400000000    -0.031087   
C237     C      0.526530000000     0.319970000000     0.985560000000     0.0639553  
C238     C      0.562270000000     0.333580000000     0.947900000000    -0.0241388  
C239     C      0.515770000000     0.304940000000     0.953320000000    -0.0536727  
C240     C      0.588940000000     0.340060000000     0.954440000000    -0.010942   
C241     C      0.590250000000     0.304640000000     0.011150000000    -0.00514443 
C242     C      0.486950000000     0.330700000000     0.012750000000    -0.0541448  
C243     C      0.327960000000     0.445620000000     0.986490000000    -0.0289619  
C244     C      0.328430000000     0.570950000000     0.058700000000    -0.0310338  
C245     C      0.324900000000     0.591300000000     0.968180000000    -0.00393865 
C246     C      0.336150000000     0.596980000000     0.051450000000    -0.00389104 
C247     C      0.351000000000     0.517510000000     0.014060000000    -0.0510991  
C248     C      0.308390000000     0.495650000000     0.041550000000    -0.051313   
C249     C      0.331100000000     0.531690000000     0.024220000000     0.0634939  
C250     C      0.317630000000     0.565800000000     0.980710000000    -0.0309258  
C251     C      0.328230000000     0.481420000000     0.030780000000     0.0637702  
C252     C      0.343020000000     0.444230000000     0.062300000000    -0.0246252  
C253     C      0.349660000000     0.492620000000     0.017130000000    -0.0538465  
C254     C      0.338190000000     0.417110000000     0.067180000000    -0.0106857  
C255     C      0.320220000000     0.419550000000     0.987160000000    -0.00583373 
C256     C      0.309720000000     0.520610000000     0.038240000000    -0.0543485  
H1       H      0.147380000000     0.029470000000     0.514550000000     0.0434036  
H2       H      0.164150000000     0.951670000000     0.421410000000     0.0378687  
H3       H      0.194990000000     0.952470000000     0.551250000000     0.0503042  
H4       H      0.190060000000     0.094900000000     0.425860000000     0.040558   
H5       H      0.149670000000     0.915640000000     0.454350000000     0.0400032  
H6       H      0.199840000000     0.055480000000     0.548450000000     0.0392965  
H7       H      0.165970000000     0.059180000000     0.420800000000     0.038184   
H8       H      0.193490000000     0.099610000000     0.558970000000     0.0485267  
H9       H      0.144220000000     0.985590000000     0.517120000000     0.0481156  
H10      H      0.172820000000     0.907510000000     0.415950000000     0.048466   
H11      H      0.216680000000     0.023580000000     0.452020000000     0.0488566  
H12      H      0.195100000000     0.943460000000     0.429600000000     0.0423766  
H13      H      0.159210000000     0.103490000000     0.431160000000     0.0468834  
H14      H      0.176100000000     0.914740000000     0.552900000000     0.0539181  
H15      H      0.168870000000     0.064560000000     0.544510000000     0.0405295  
H16      H      0.149210000000     0.066610000000     0.470540000000     0.0397556  
H17      H      0.213570000000     0.979850000000     0.454450000000     0.0459547  
H18      H      0.212830000000     0.945620000000     0.502750000000     0.052851   
H19      H      0.213800000000     0.092130000000     0.514590000000     0.0409143  
H20      H      0.249080000000     0.916130000000     0.583720000000     0.16245    
H21      H      0.029370000000     0.854120000000     0.498360000000     0.0432771  
H22      H      0.953120000000     0.806260000000     0.458600000000     0.0392117  
H23      H      0.952470000000     0.832680000000     0.591390000000     0.0404687  
H24      H      0.091750000000     0.788840000000     0.476580000000     0.0458712  
H25      H      0.916850000000     0.827710000000     0.458440000000     0.0445791  
H26      H      0.061660000000     0.829040000000     0.584490000000     0.0396804  
H27      H      0.054110000000     0.804860000000     0.450270000000     0.0390392  
H28      H      0.105620000000     0.836750000000     0.571320000000     0.047987   
H29      H      0.985440000000     0.857160000000     0.499980000000     0.0483087  
H30      H      0.908480000000     0.797130000000     0.465930000000     0.0506179  
H31      H      0.024930000000     0.781320000000     0.546230000000     0.0504924  
H32      H      0.944510000000     0.787350000000     0.504920000000     0.043063   
H33      H      0.097900000000     0.812240000000     0.436780000000     0.0487495  
H34      H      0.914910000000     0.846740000000     0.568440000000     0.0519836  
H35      H      0.067620000000     0.849350000000     0.538600000000     0.0396301  
H36      H      0.063350000000     0.835280000000     0.460700000000     0.0396583  
H37      H      0.981130000000     0.784350000000     0.548100000000     0.046988   
H38      H      0.945870000000     0.801860000000     0.579540000000     0.0516966  
H39      H      0.097140000000     0.805770000000     0.569710000000     0.0464135  
H40      H      0.927350000000     0.823970000000     0.667460000000     0.149673   
H41      H      0.857350000000     0.978160000000     0.532130000000     0.0442052  
H42      H      0.849490000000     0.055900000000     0.432950000000     0.0383561  
H43      H      0.805150000000     0.053820000000     0.547610000000     0.0503592  
H44      H      0.823960000000     0.912630000000     0.429690000000     0.0518513  
H45      H      0.859910000000     0.092100000000     0.468880000000     0.0417996  
H46      H      0.804330000000     0.951040000000     0.548960000000     0.0409038  
H47      H      0.847700000000     0.948540000000     0.432450000000     0.0396304  
H48      H      0.810910000000     0.906770000000     0.561220000000     0.0497697  
H49      H      0.859650000000     0.022090000000     0.534440000000     0.0488451  
H50      H      0.840000000000     0.100270000000     0.424280000000     0.0470157  
H51      H      0.795590000000     0.982840000000     0.445050000000     0.0512425  
H52      H      0.818210000000     0.063560000000     0.428890000000     0.0419882  
H53      H      0.854020000000     0.904250000000     0.444410000000     0.0503706  
H54      H      0.822430000000     0.091630000000     0.558000000000     0.0562338  
H55      H      0.835370000000     0.942370000000     0.553680000000     0.0412085  
H56      H      0.860360000000     0.940890000000     0.486490000000     0.0402513  
H57      H      0.798010000000     0.026610000000     0.446800000000     0.046581   
H58      H      0.793120000000     0.060860000000     0.493000000000     0.0532474  
H59      H      0.793330000000     0.914320000000     0.512620000000     0.0473863  
H60      H      0.747470000000     0.090070000000     0.551860000000     0.16329    
H61      H      0.025270000000     0.168190000000     0.493280000000     0.0445579  
H62      H      0.947250000000     0.163310000000     0.590540000000     0.0384388  
H63      H      0.949920000000     0.221900000000     0.500550000000     0.0486928  
H64      H      0.091100000000     0.182790000000     0.608480000000     0.0400096  
H65      H      0.911260000000     0.155960000000     0.554220000000     0.0433014  
H66      H      0.053520000000     0.222230000000     0.507970000000     0.0415246  
H67      H      0.054220000000     0.161430000000     0.593830000000     0.0378373  
H68      H      0.097400000000     0.217050000000     0.493060000000     0.0566754  
H69      H      0.981340000000     0.167230000000     0.487800000000     0.0493579  
H70      H      0.901670000000     0.173600000000     0.600480000000     0.0464846  
H71      H      0.020430000000     0.215240000000     0.607410000000     0.0492152  
H72      H      0.938940000000     0.192920000000     0.608010000000     0.041644   
H73      H      0.098210000000     0.155670000000     0.579180000000     0.045173   
H74      H      0.912800000000     0.208400000000     0.477830000000     0.0583851  
H75      H      0.060990000000     0.193350000000     0.484980000000     0.0437482  
H76      H      0.061340000000     0.157780000000     0.535170000000     0.0403661  
H77      H      0.976560000000     0.214300000000     0.601980000000     0.046323   
H78      H      0.941790000000     0.225590000000     0.558380000000     0.0531133  
H79      H      0.090490000000     0.224150000000     0.550370000000     0.0435707  
H80      H      0.908270000000     0.276330000000     0.534140000000     0.165595   
H81      H      0.750390000000     0.737860000000     0.676430000000     0.044895   
H82      H      0.758770000000     0.703310000000     0.837970000000     0.0414265  
H83      H      0.695580000000     0.743650000000     0.817950000000     0.0524783  
H84      H      0.822780000000     0.793810000000     0.670240000000     0.0521549  
H85      H      0.726950000000     0.677380000000     0.861510000000     0.0522318  
H86      H      0.745770000000     0.798260000000     0.673110000000     0.0405379  
H87      H      0.807720000000     0.756260000000     0.697840000000     0.0420875  
H88      H      0.764400000000     0.813920000000     0.601440000000     0.0478442  
H89      H      0.729080000000     0.714100000000     0.733390000000     0.0511956  
H90      H      0.742740000000     0.687460000000     0.910350000000     0.05557    
H91      H      0.773940000000     0.786790000000     0.779200000000     0.0510071  
H92      H      0.750600000000     0.726210000000     0.877610000000     0.0429197  
H93      H      0.826340000000     0.772090000000     0.626580000000     0.0564141  
H94      H      0.680190000000     0.708530000000     0.852420000000     0.0579755  
H95      H      0.754280000000     0.775330000000     0.633790000000     0.040439   
H96      H      0.789990000000     0.751190000000     0.647970000000     0.0411205  
H97      H      0.752840000000     0.763110000000     0.836050000000     0.0467523  
H98      H      0.715350000000     0.750350000000     0.864180000000     0.0523579  
H99      H      0.778650000000     0.823690000000     0.652270000000     0.0454427  
H100     H      0.660000000000     0.774250000000     0.905240000000     0.163063   
H101     H      0.719720000000     0.730660000000     0.256390000000     0.0445271  
H102     H      0.799040000000     0.746240000000     0.341870000000     0.0389786  
H103     H      0.760790000000     0.809630000000     0.312190000000     0.0506043  
H104     H      0.751370000000     0.697250000000     0.107760000000     0.0448071  
H105     H      0.795400000000     0.764300000000     0.413510000000     0.0413125  
H106     H      0.714600000000     0.759270000000     0.157860000000     0.0411295  
H107     H      0.757880000000     0.698860000000     0.187590000000     0.0396778  
H108     H      0.689980000000     0.734200000000     0.104090000000     0.0521814  
H109     H      0.736360000000     0.750450000000     0.323260000000     0.0492597  
H110     H      0.825440000000     0.769530000000     0.395390000000     0.0499628  
H111     H      0.778800000000     0.757020000000     0.177470000000     0.0502228  
H112     H      0.814070000000     0.771750000000     0.317790000000     0.0427976  
H113     H      0.733690000000     0.674120000000     0.133260000000     0.0505285  
H114     H      0.768060000000     0.815720000000     0.389160000000     0.0543859  
H115     H      0.701320000000     0.732950000000     0.182700000000     0.0411909  
H116     H      0.726230000000     0.698130000000     0.199580000000     0.0411302  
H117     H      0.795620000000     0.776440000000     0.244160000000     0.0465699  
H118     H      0.791990000000     0.806830000000     0.298260000000     0.0529921  
H119     H      0.720140000000     0.740050000000     0.086620000000     0.0465301  
H120     H      0.791700000000     0.869740000000     0.302420000000     0.161749   
H121     H      0.757470000000     0.269960000000     0.798790000000     0.0450058  
H122     H      0.756470000000     0.203280000000     0.679490000000     0.041208   
H123     H      0.778540000000     0.270020000000     0.626870000000     0.0519     
H124     H      0.669710000000     0.272020000000     0.843180000000     0.0469408  
H125     H      0.794000000000     0.193950000000     0.646950000000     0.0477033  
H126     H      0.718830000000     0.316130000000     0.773330000000     0.041258   
H127     H      0.702070000000     0.246160000000     0.819470000000     0.0404576  
H128     H      0.703540000000     0.333550000000     0.845360000000     0.0524419  
H129     H      0.782780000000     0.251410000000     0.741210000000     0.0508663  
H130     H      0.771540000000     0.183060000000     0.609260000000     0.0598537  
H131     H      0.697160000000     0.268100000000     0.707850000000     0.050897   
H132     H      0.744120000000     0.214430000000     0.627440000000     0.0443077  
H133     H      0.686610000000     0.262910000000     0.891820000000     0.0524155  
H134     H      0.809950000000     0.245750000000     0.600620000000     0.0602664  
H135     H      0.733950000000     0.304620000000     0.822600000000     0.0421561  
H136     H      0.724070000000     0.263510000000     0.849770000000     0.0421286  
H137     H      0.722410000000     0.249710000000     0.650270000000     0.0473461  
H138     H      0.755440000000     0.252840000000     0.599710000000     0.0534976  
H139     H      0.680920000000     0.318830000000     0.812380000000     0.0481224  
H140     H      0.772860000000     0.285230000000     0.503150000000     0.162907   
H141     H      0.775020000000     0.259280000000     0.296580000000     0.0472819  
H142     H      0.766220000000     0.268300000000     0.118790000000     0.0388439  
H143     H      0.702480000000     0.259540000000     0.193160000000     0.0509163  
H144     H      0.820610000000     0.181520000000     0.318900000000     0.0422489  
H145     H      0.743410000000     0.301700000000     0.094700000000     0.0408768  
H146     H      0.748480000000     0.206030000000     0.329230000000     0.0424925  
H147     H      0.817720000000     0.217980000000     0.275280000000     0.0402934  
H148     H      0.766690000000     0.192360000000     0.402050000000     0.0576832  
H149     H      0.755000000000     0.282690000000     0.237280000000     0.0503604  
H150     H      0.741150000000     0.280180000000     0.050690000000     0.0478478  
H151     H      0.764920000000     0.194990000000     0.219120000000     0.049887   
H152     H      0.743800000000     0.247040000000     0.101360000000     0.0420778  
H153     H      0.836480000000     0.204650000000     0.348350000000     0.0527201  
H154     H      0.691960000000     0.293410000000     0.150430000000     0.0552331  
H155     H      0.767800000000     0.228060000000     0.354790000000     0.0477093  
H156     H      0.808140000000     0.235090000000     0.323250000000     0.0457291  
H157     H      0.744770000000     0.218250000000     0.160110000000     0.0461851  
H158     H      0.708650000000     0.241220000000     0.145020000000     0.0534005  
H159     H      0.773180000000     0.173260000000     0.355270000000     0.0444615  
H160     H      0.645800000000     0.234680000000     0.141030000000     0.162848   
H161     H      0.668330000000     0.467790000000     0.988180000000     0.0475365  
H162     H      0.676850000000     0.546700000000     0.083360000000     0.0409194  
H163     H      0.715190000000     0.545720000000     0.961270000000     0.0517086  
H164     H      0.699280000000     0.404940000000     0.095760000000     0.0401119  
H165     H      0.662450000000     0.581730000000     0.047890000000     0.054731   
H166     H      0.725370000000     0.440720000000     0.980670000000     0.0408499  
H167     H      0.675760000000     0.441240000000     0.088440000000     0.0401833  
H168     H      0.719830000000     0.396590000000     0.971580000000     0.0507701  
H169     H      0.664790000000     0.511470000000     0.981460000000     0.0544552  
H170     H      0.684080000000     0.591580000000     0.088150000000     0.0513712  
H171     H      0.730650000000     0.476280000000     0.072760000000     0.049338   
H172     H      0.707650000000     0.556270000000     0.081270000000     0.042067   
H173     H      0.669230000000     0.397010000000     0.079850000000     0.0495307  
H174     H      0.694790000000     0.582210000000     0.952260000000     0.0622559  
H175     H      0.694620000000     0.432530000000     0.969600000000     0.045517   
H176     H      0.665270000000     0.432860000000     0.033260000000     0.0443807  
H177     H      0.727540000000     0.519880000000     0.065060000000     0.046407   
H178     H      0.729450000000     0.554210000000     0.013090000000     0.0530465  
H179     H      0.732200000000     0.404840000000     0.025200000000     0.0403836  
H180     H      0.769370000000     0.585710000000     0.942470000000     0.163239   
H181     H      0.258870000000     0.758450000000     0.796300000000     0.0462789  
H182     H      0.268530000000     0.800370000000     0.637550000000     0.0409464  
H183     H      0.217450000000     0.744720000000     0.644770000000     0.0498415  
H184     H      0.339150000000     0.717430000000     0.822820000000     0.0422498  
H185     H      0.234380000000     0.820260000000     0.609840000000     0.052444   
H186     H      0.267520000000     0.697970000000     0.786590000000     0.040213   
H187     H      0.319580000000     0.753080000000     0.795040000000     0.0403705  
H188     H      0.281390000000     0.681360000000     0.860820000000     0.0493635  
H189     H      0.236550000000     0.779200000000     0.736380000000     0.0512014  
H190     H      0.250820000000     0.812170000000     0.560920000000     0.0526242  
H191     H      0.300590000000     0.721480000000     0.696610000000     0.0494067  
H192     H      0.267410000000     0.777390000000     0.595380000000     0.0418305  
H193     H      0.333620000000     0.736750000000     0.869710000000     0.0525218  
H194     H      0.193240000000     0.774180000000     0.612030000000     0.0575449  
H195     H      0.266130000000     0.719210000000     0.832000000000     0.043317   
H196     H      0.296340000000     0.751250000000     0.836870000000     0.0449563  
H197     H      0.278360000000     0.742150000000     0.636780000000     0.0461114  
H198     H      0.239620000000     0.745560000000     0.601140000000     0.0527573  
H199     H      0.303100000000     0.679270000000     0.816660000000     0.0420074  
H200     H      0.199490000000     0.711020000000     0.537860000000     0.162284   
H201     H      0.258190000000     0.756740000000     0.295300000000     0.0456238  
H202     H      0.245990000000     0.710900000000     0.144200000000     0.038805   
H203     H      0.294100000000     0.769120000000     0.136230000000     0.0494934  
H204     H      0.174780000000     0.790480000000     0.323350000000     0.0426678  
H205     H      0.279800000000     0.691520000000     0.115040000000     0.0434979  
H206     H      0.244200000000     0.815950000000     0.285290000000     0.0402657  
H207     H      0.197070000000     0.756670000000     0.295780000000     0.0398821  
H208     H      0.229820000000     0.831230000000     0.360010000000     0.0504415  
H209     H      0.280200000000     0.736390000000     0.235120000000     0.0498725  
H210     H      0.261230000000     0.697070000000     0.067210000000     0.0466575  
H211     H      0.211420000000     0.789030000000     0.196600000000     0.0491488  
H212     H      0.244200000000     0.732160000000     0.098730000000     0.0414883  
H213     H      0.182490000000     0.771800000000     0.370440000000     0.0534009  
H214     H      0.318600000000     0.740010000000     0.104300000000     0.0571605  
H215     H      0.247840000000     0.794890000000     0.330910000000     0.042875   
H216     H      0.220510000000     0.760550000000     0.337020000000     0.0441702  
H217     H      0.233330000000     0.768730000000     0.136520000000     0.0459396  
H218     H      0.270240000000     0.765460000000     0.096110000000     0.0527279  
H219     H      0.207670000000     0.831820000000     0.316130000000     0.0424749  
H220     H      0.304790000000     0.798930000000     0.020950000000     0.16208    
H221     H      0.485390000000     0.705560000000     0.973490000000     0.0451818  
H222     H      0.560380000000     0.684410000000     0.072710000000     0.0396319  
H223     H      0.558070000000     0.649960000000     0.946680000000     0.0420418  
H224     H      0.415840000000     0.668930000000     0.062440000000     0.0421881  
H225     H      0.597870000000     0.695250000000     0.042280000000     0.0479078  
H226     H      0.455860000000     0.656580000000     0.939670000000     0.0394441  
H227     H      0.452930000000     0.690330000000     0.066770000000     0.0394714  
H228     H      0.412030000000     0.666430000000     0.927080000000     0.0467235  
H229     H      0.529470000000     0.704910000000     0.973870000000     0.051439   
H230     H      0.603960000000     0.671520000000     0.081020000000     0.0487846  
H231     H      0.484370000000     0.637320000000     0.041600000000     0.0492336  
H232     H      0.566100000000     0.652790000000     0.068240000000     0.0423581  
H233     H      0.408980000000     0.699890000000     0.053200000000     0.0496619  
H234     H      0.597180000000     0.664930000000     0.943220000000     0.0593082  
H235     H      0.448500000000     0.687920000000     0.943630000000     0.0412479  
H236     H      0.446880000000     0.707200000000     0.016240000000     0.0420052  
H237     H      0.528260000000     0.636760000000     0.042570000000     0.0465199  
H238     H      0.563100000000     0.633320000000     0.997670000000     0.0513561  
H239     H      0.418040000000     0.644170000000     0.969110000000     0.040323   
H240     H      0.579370000000     0.612250000000     0.907130000000     0.151501   
H241     H      0.215510000000     0.232500000000     0.759900000000     0.043737   
H242     H      0.296040000000     0.249380000000     0.844410000000     0.0379517  
H243     H      0.253600000000     0.310760000000     0.820450000000     0.050927   
H244     H      0.244670000000     0.203510000000     0.606790000000     0.0426429  
H245     H      0.291990000000     0.266600000000     0.917090000000     0.0407802  
H246     H      0.209740000000     0.264790000000     0.664280000000     0.0401169  
H247     H      0.251990000000     0.202780000000     0.686460000000     0.0382227  
H248     H      0.184280000000     0.242000000000     0.608630000000     0.0479797  
H249     H      0.232350000000     0.251100000000     0.827810000000     0.0486687  
H250     H      0.321680000000     0.272960000000     0.898070000000     0.0471888  
H251     H      0.273160000000     0.262070000000     0.681260000000     0.0492907  
H252     H      0.309230000000     0.276070000000     0.820960000000     0.0419841  
H253     H      0.226680000000     0.180100000000     0.630540000000     0.0476028  
H254     H      0.261980000000     0.315560000000     0.897660000000     0.0549979  
H255     H      0.196110000000     0.238050000000     0.686770000000     0.0400351  
H256     H      0.220450000000     0.202320000000     0.699470000000     0.0396966  
H257     H      0.290100000000     0.280450000000     0.748870000000     0.0460518  
H258     H      0.284670000000     0.310190000000     0.804550000000     0.0527296  
H259     H      0.214500000000     0.247510000000     0.591070000000     0.0435297  
H260     H      0.278210000000     0.373060000000     0.813190000000     0.162774   
H261     H      0.262790000000     0.239400000000     0.186130000000     0.0437391  
H262     H      0.256530000000     0.222860000000     0.357930000000     0.0381559  
H263     H      0.189700000000     0.234300000000     0.294250000000     0.0520015  
H264     H      0.310530000000     0.317110000000     0.182090000000     0.0468172  
H265     H      0.232090000000     0.189050000000     0.378100000000     0.0402301  
H266     H      0.238910000000     0.293570000000     0.156170000000     0.0399416  
H267     H      0.305510000000     0.279180000000     0.219850000000     0.0394678  
H268     H      0.260480000000     0.309470000000     0.088220000000     0.0479009  
H269     H      0.242520000000     0.213870000000     0.241720000000     0.0485744  
H270     H      0.236150000000     0.207670000000     0.426360000000     0.0479212  
H271     H      0.252410000000     0.300670000000     0.271500000000     0.0500825  
H272     H      0.235530000000     0.243850000000     0.381510000000     0.0425119  
H273     H      0.327380000000     0.294990000000     0.152130000000     0.0507045  
H274     H      0.182370000000     0.198920000000     0.336920000000     0.0536324  
H275     H      0.259290000000     0.272380000000     0.131300000000     0.0400779  
H276     H      0.297960000000     0.264030000000     0.168280000000     0.0400873  
H277     H      0.232190000000     0.275300000000     0.326940000000     0.0462531  
H278     H      0.197860000000     0.251610000000     0.342890000000     0.0522694  
H279     H      0.264380000000     0.327090000000     0.138020000000     0.0437105  
H280     H      0.133130000000     0.254340000000     0.344330000000     0.162798   
H281     H      0.476050000000     0.340910000000     0.035780000000     0.0467144  
H282     H      0.555380000000     0.290700000000     0.027020000000     0.0411291  
H283     H      0.552290000000     0.350270000000     0.939340000000     0.0508276  
H284     H      0.411830000000     0.282840000000     0.983100000000     0.0415833  
H285     H      0.590810000000     0.311770000000     0.046000000000     0.0502808  
H286     H      0.448830000000     0.343680000000     0.931710000000     0.0415144  
H287     H      0.448130000000     0.287010000000     0.027000000000     0.0396158  
H288     H      0.404680000000     0.349620000000     0.941710000000     0.0537866  
H289     H      0.519900000000     0.344390000000     0.040100000000     0.051      
H290     H      0.599880000000     0.287190000000     0.011840000000     0.0567873  
H291     H      0.482850000000     0.291390000000     0.925790000000     0.049551   
H292     H      0.563620000000     0.287770000000     0.968830000000     0.0430397  
H293     H      0.403820000000     0.292840000000     0.038330000000     0.049714   
H294     H      0.589810000000     0.357290000000     0.972950000000     0.0562364  
H295     H      0.440460000000     0.349880000000     0.989020000000     0.0463376  
H296     H      0.440160000000     0.316790000000     0.044740000000     0.0439385  
H297     H      0.526580000000     0.294890000000     0.929920000000     0.0465438  
H298     H      0.560230000000     0.321060000000     0.919030000000     0.0530978  
H299     H      0.412540000000     0.321190000000     0.918000000000     0.0427073  
H300     H      0.589140000000     0.353220000000     0.832720000000     0.162748   
H301     H      0.294020000000     0.531200000000     0.045860000000     0.0443613  
H302     H      0.316140000000     0.455440000000     0.962450000000     0.0406057  
H303     H      0.341740000000     0.452560000000     0.096160000000     0.0512787  
H304     H      0.342180000000     0.590670000000     0.949710000000     0.042285   
H305     H      0.300450000000     0.418760000000     0.991590000000     0.0482238  
H306     H      0.338980000000     0.563400000000     0.087260000000     0.0393126  
H307     H      0.319880000000     0.554300000000     0.950530000000     0.0389838  
H308     H      0.329390000000     0.607980000000     0.079800000000     0.045449   
H309     H      0.291740000000     0.487320000000     0.051730000000     0.0498659  
H310     H      0.324210000000     0.411760000000     0.953640000000     0.0581596  
H311     H      0.367490000000     0.525810000000     0.002870000000     0.0493255  
H312     H      0.346710000000     0.446880000000     0.973930000000     0.0439385  
H313     H      0.311260000000     0.598820000000     0.944690000000     0.047398   
H314     H      0.322830000000     0.414760000000     0.090500000000     0.0539809  
H315     H      0.309120000000     0.570420000000     0.068040000000     0.0398898  
H316     H      0.298350000000     0.565440000000     0.990300000000     0.0404334  
H317     H      0.365200000000     0.482140000000     0.008030000000     0.0466141  
H318     H      0.361630000000     0.447060000000     0.049890000000     0.052645   
H319     H      0.356060000000     0.597880000000     0.052610000000     0.0409459  
H320     H      0.393680000000     0.415650000000     0.135120000000     0.162151   
In1      In     0.330340000000     0.332950000000     0.009480000000     2.4274     
In2      In     0.333670000000     0.678430000000     0.986230000000     2.42207    
In3      In     0.675120000000     0.326190000000     0.994140000000     2.42968    
In4      In     0.680460000000     0.666130000000     0.009310000000     2.44592    
In5      In     0.832020000000     0.175910000000     0.498310000000     2.4358     
In6      In     0.832380000000     0.829380000000     0.508740000000     2.42769    
In7      In     0.176660000000     0.830680000000     0.484200000000     2.42792    
In8      In     0.171410000000     0.176900000000     0.508730000000     2.41172    
N1       N      0.181460000000     0.903430000000     0.485910000000    -0.160758   
N2       N      0.176260000000     0.953670000000     0.489150000000    -0.112881   
N3       N      0.185380000000     0.055380000000     0.482110000000    -0.112597   
N4       N      0.180420000000     0.105250000000     0.491560000000    -0.167144   
N5       N      0.904160000000     0.819450000000     0.523600000000    -0.158789   
N6       N      0.954190000000     0.823250000000     0.522500000000    -0.112358   
N7       N      0.055990000000     0.814330000000     0.519430000000    -0.112043   
N8       N      0.105540000000     0.820330000000     0.506070000000    -0.166227   
N9       N      0.825720000000     0.103460000000     0.490680000000    -0.1602     
N10      N      0.830470000000     0.053420000000     0.494600000000    -0.112373   
N11      N      0.823560000000     0.951610000000     0.487310000000    -0.111552   
N12      N      0.828050000000     0.901760000000     0.497370000000    -0.164828   
N13      N      0.900470000000     0.191180000000     0.536840000000    -0.160459   
N14      N      0.949900000000     0.189900000000     0.539360000000    -0.111702   
N15      N      0.051830000000     0.193350000000     0.554790000000    -0.112499   
N16      N      0.101510000000     0.188340000000     0.541070000000    -0.166724   
N17      N      0.707290000000     0.701890000000     0.900890000000    -0.15938    
N18      N      0.726780000000     0.722140000000     0.821480000000    -0.112186   
N19      N      0.776860000000     0.778440000000     0.691770000000    -0.111771   
N20      N      0.798900000000     0.798520000000     0.615660000000    -0.165681   
N21      N      0.802540000000     0.800340000000     0.396120000000    -0.161547   
N22      N      0.776420000000     0.776170000000     0.329010000000    -0.112541   
N23      N      0.739170000000     0.731030000000     0.171840000000    -0.112032   
N24      N      0.714170000000     0.704300000000     0.107040000000    -0.166037   
N25      N      0.791230000000     0.213720000000     0.586360000000    -0.157754   
N26      N      0.769820000000     0.237330000000     0.659340000000    -0.11211    
N27      N      0.709590000000     0.280320000000     0.790850000000    -0.111977   
N28      N      0.690980000000     0.299620000000     0.870740000000    -0.164465   
N29      N      0.709180000000     0.285700000000     0.088950000000    -0.160959   
N30      N      0.735690000000     0.266570000000     0.161280000000    -0.112336   
N31      N      0.782130000000     0.210680000000     0.296820000000    -0.112103   
N32      N      0.802890000000     0.193610000000     0.377150000000    -0.164591   
N33      N      0.694550000000     0.594810000000     0.019200000000    -0.157947   
N34      N      0.692740000000     0.544570000000     0.018600000000    -0.110803   
N35      N      0.702190000000     0.443260000000     0.037140000000    -0.112326   
N36      N      0.696150000000     0.393430000000     0.028470000000    -0.167074   
N37      N      0.218390000000     0.792600000000     0.571680000000    -0.159633   
N38      N      0.241490000000     0.774110000000     0.648010000000    -0.111756   
N39      N      0.294340000000     0.725070000000     0.784670000000    -0.112174   
N40      N      0.311600000000     0.705210000000     0.865660000000    -0.16566    
N41      N      0.293010000000     0.718330000000     0.071220000000    -0.160697   
N42      N      0.271960000000     0.738750000000     0.147070000000    -0.112099   
N43      N      0.219680000000     0.786750000000     0.284380000000    -0.112315   
N44      N      0.201570000000     0.805170000000     0.365330000000    -0.165208   
N45      N      0.607680000000     0.662640000000     0.011480000000    -0.158312   
N46      N      0.558080000000     0.670740000000     0.006200000000    -0.111411   
N47      N      0.455840000000     0.670390000000     0.006270000000    -0.112092   
N48      N      0.406340000000     0.677240000000     0.995360000000    -0.166956   
N49      N      0.297740000000     0.303010000000     0.900610000000    -0.161108   
N50      N      0.271560000000     0.278080000000     0.834140000000    -0.112764   
N51      N      0.233820000000     0.235710000000     0.674650000000    -0.11232    
N52      N      0.207660000000     0.211410000000     0.608040000000    -0.166542   
N53      N      0.200730000000     0.207660000000     0.397070000000    -0.161823   
N54      N      0.224240000000     0.226910000000     0.320500000000    -0.113105   
N55      N      0.271020000000     0.287660000000     0.193450000000    -0.112181   
N56      N      0.295280000000     0.307690000000     0.119540000000    -0.166318   
N57      N      0.602510000000     0.321860000000     0.981090000000    -0.159155   
N58      N      0.552250000000     0.322790000000     0.988730000000    -0.112132   
N59      N      0.450570000000     0.313630000000     0.975850000000    -0.11219    
N60      N      0.400640000000     0.318930000000     0.985190000000    -0.165466   
N61      N      0.331670000000     0.405520000000     0.023680000000    -0.159531   
N62      N      0.325720000000     0.455650000000     0.031720000000    -0.112628   
N63      N      0.332900000000     0.557220000000     0.017630000000    -0.11206    
N64      N      0.327940000000     0.606860000000     0.007860000000    -0.166708   
O1       O      0.296240000000     0.323710000000     0.048040000000    -0.506933   
O2       O      0.329620000000     0.316340000000     0.079750000000    -0.490071   
O3       O      0.302200000000     0.332710000000     0.953960000000    -0.477684   
O4       O      0.325130000000     0.370950000000     0.983170000000    -0.481566   
O5       O      0.364830000000     0.311570000000     0.021360000000    -0.488757   
O6       O      0.335480000000     0.366840000000     0.051260000000    -0.48871    
O7       O      0.324860000000     0.302400000000     0.959550000000    -0.508486   
O8       O      0.365820000000     0.340370000000     0.974530000000    -0.498193   
O9       O      0.309070000000     0.678600000000     0.924840000000    -0.494944   
O10      O      0.335890000000     0.705530000000     0.928570000000    -0.494417   
O11      O      0.300500000000     0.684330000000     0.029630000000    -0.505444   
O12      O      0.333990000000     0.645570000000     0.032270000000    -0.50247    
O13      O      0.370750000000     0.671150000000     0.957600000000    -0.507264   
O14      O      0.325110000000     0.640570000000     0.963310000000    -0.495083   
O15      O      0.326870000000     0.711650000000     0.028550000000    -0.485113   
O16      O      0.368880000000     0.686810000000     0.022510000000    -0.493013   
O17      O      0.676630000000     0.306810000000     0.061470000000    -0.483339   
O18      O      0.708150000000     0.306770000000     0.021940000000    -0.505253   
O19      O      0.679620000000     0.295370000000     0.944750000000    -0.496379   
O20      O      0.639040000000     0.308520000000     0.007870000000    -0.483219   
O21      O      0.672490000000     0.359880000000     0.037340000000    -0.503366   
O22      O      0.639010000000     0.340620000000     0.969730000000    -0.488075   
O23      O      0.687040000000     0.330550000000     0.921240000000    -0.487217   
O24      O      0.698600000000     0.359280000000     0.985600000000    -0.496972   
O25      O      0.707810000000     0.670010000000     0.065950000000    -0.500298   
O26      O      0.685310000000     0.699800000000     0.051970000000    -0.493397   
O27      O      0.710360000000     0.674870000000     0.959670000000    -0.490592   
O28      O      0.694790000000     0.631000000000     0.981030000000    -0.477556   
O29      O      0.644310000000     0.672520000000     0.042800000000    -0.498701   
O30      O      0.679900000000     0.630490000000     0.046570000000    -0.500362   
O31      O      0.676610000000     0.691330000000     0.949300000000    -0.482315   
O32      O      0.644440000000     0.657740000000     0.977140000000    -0.48499    
O33      O      0.800240000000     0.182240000000     0.451460000000    -0.496394   
O34      O      0.835100000000     0.187650000000     0.424800000000    -0.488475   
O35      O      0.804990000000     0.178570000000     0.555200000000    -0.478361   
O36      O      0.820090000000     0.139860000000     0.525680000000    -0.476082   
O37      O      0.866850000000     0.197100000000     0.492670000000    -0.482547   
O38      O      0.839540000000     0.139960000000     0.464540000000    -0.505373   
O39      O      0.819780000000     0.210930000000     0.530350000000    -0.479797   
O40      O      0.865370000000     0.169470000000     0.541640000000    -0.510076   
O41      O      0.827200000000     0.798750000000     0.458660000000    -0.497185   
O42      O      0.806580000000     0.830150000000     0.449220000000    -0.49178    
O43      O      0.830710000000     0.802840000000     0.567200000000    -0.492465   
O44      O      0.867340000000     0.833270000000     0.547810000000    -0.486427   
O45      O      0.820620000000     0.866070000000     0.534020000000    -0.494346   
O46      O      0.868730000000     0.816830000000     0.483560000000    -0.492735   
O47      O      0.799930000000     0.824190000000     0.554750000000    -0.496332   
O48      O      0.841290000000     0.864750000000     0.474190000000    -0.495253   
O49      O      0.183350000000     0.799360000000     0.532000000000    -0.4896     
O50      O      0.211200000000     0.824810000000     0.524600000000    -0.488197   
O51      O      0.177620000000     0.802920000000     0.428150000000    -0.487558   
O52      O      0.138990000000     0.820930000000     0.460970000000    -0.497545   
O53      O      0.184650000000     0.866020000000     0.519200000000    -0.483732   
O54      O      0.143440000000     0.831580000000     0.528990000000    -0.49911    
O55      O      0.201310000000     0.832560000000     0.423120000000    -0.493839   
O56      O      0.171990000000     0.867500000000     0.451960000000    -0.504211   
O57      O      0.203120000000     0.190900000000     0.468060000000    -0.50893    
O58      O      0.169000000000     0.191380000000     0.436950000000    -0.475547   
O59      O      0.178070000000     0.209230000000     0.553880000000    -0.499784   
O60      O      0.136110000000     0.197250000000     0.502470000000    -0.484289   
O61      O      0.167260000000     0.142430000000     0.467960000000    -0.502634   
O62      O      0.136980000000     0.167230000000     0.546400000000    -0.508688   
O63      O      0.199750000000     0.178400000000     0.564150000000    -0.488442   
O64      O      0.183380000000     0.140000000000     0.532630000000    -0.493584   
O65      O      0.232550000000     0.889650000000     0.509690000000    -0.171887   
O66      O      0.234710000000     0.924720000000     0.572540000000    -0.285407   
O67      O      0.210410000000     0.883810000000     0.589870000000    -0.164459   
O68      O      0.888190000000     0.789250000000     0.601630000000    -0.160479   
O69      O      0.922630000000     0.808170000000     0.655300000000    -0.274813   
O70      O      0.882550000000     0.833560000000     0.635750000000    -0.167338   
O71      O      0.773640000000     0.117630000000     0.490310000000    -0.174321   
O72      O      0.762890000000     0.081520000000     0.548250000000    -0.284579   
O73      O      0.784270000000     0.121820000000     0.578820000000    -0.157919   
O74      O      0.883590000000     0.237830000000     0.573280000000    -0.172252   
O75      O      0.917990000000     0.262010000000     0.527120000000    -0.283435   
O76      O      0.878860000000     0.244900000000     0.483700000000    -0.152639   
O77      O      0.686710000000     0.742270000000     0.958580000000    -0.175518   
O78      O      0.669990000000     0.765020000000     0.884020000000    -0.284574   
O79      O      0.647100000000     0.725760000000     0.915650000000    -0.162728   
O80      O      0.824490000000     0.845480000000     0.357820000000    -0.174549   
O81      O      0.784950000000     0.853470000000     0.306400000000    -0.284665   
O82      O      0.784050000000     0.863030000000     0.395470000000    -0.166826   
O83      O      0.774090000000     0.235110000000     0.498530000000    -0.172447   
O84      O      0.774120000000     0.279680000000     0.534720000000    -0.283098   
O85      O      0.815940000000     0.258830000000     0.510730000000    -0.153629   
O86      O      0.668510000000     0.252700000000     0.063880000000    -0.171906   
O87      O      0.661290000000     0.241290000000     0.151620000000    -0.284373   
O88      O      0.645790000000     0.283830000000     0.118750000000    -0.161007   
O89      O      0.745260000000     0.612130000000     0.008580000000    -0.173044   
O90      O      0.754950000000     0.576210000000     0.950060000000    -0.283842   
O91      O      0.729260000000     0.614750000000     0.922660000000    -0.159572   
O92      O      0.213370000000     0.755080000000     0.500440000000    -0.178947   
O93      O      0.205010000000     0.720820000000     0.563560000000    -0.284588   
O94      O      0.169960000000     0.752090000000     0.540430000000    -0.1658     
O95      O      0.292240000000     0.752540000000     0.993510000000    -0.180588   
O96      O      0.301130000000     0.790080000000     0.048990000000    -0.2846     
O97      O      0.337010000000     0.759960000000     0.025900000000    -0.164056   
O98      O      0.618770000000     0.610340000000     0.999580000000    -0.169114   
O99      O      0.583480000000     0.605890000000     0.937310000000    -0.27479    
O100     O      0.625680000000     0.626640000000     0.915120000000    -0.16256    
O101     O      0.314780000000     0.350670000000     0.862860000000    -0.173051   
O102     O      0.273100000000     0.356180000000     0.816560000000    -0.285351   
O103     O      0.274320000000     0.363940000000     0.906250000000    -0.161531   
O104     O      0.159220000000     0.241570000000     0.421580000000    -0.172662   
O105     O      0.148610000000     0.248050000000     0.333290000000    -0.285277   
O106     O      0.136660000000     0.206570000000     0.374730000000    -0.162861   
O107     O      0.617050000000     0.321140000000     0.883510000000    -0.178841   
O108     O      0.580470000000     0.351120000000     0.861450000000    -0.284181   
O109     O      0.620360000000     0.368480000000     0.901850000000    -0.166029   
O110     O      0.381910000000     0.391840000000     0.055200000000    -0.176963   
O111     O      0.379720000000     0.424390000000     0.122600000000    -0.284951   
O112     O      0.355500000000     0.382570000000     0.129550000000    -0.166139   
S1       S      0.217320000000     0.903300000000     0.549850000000     0.292233   
S2       S      0.902240000000     0.814350000000     0.615100000000     0.289842   
S3       S      0.782870000000     0.103090000000     0.535840000000     0.291643   
S4       S      0.898140000000     0.239380000000     0.524920000000     0.290038   
S5       S      0.673820000000     0.738190000000     0.908920000000     0.292274   
S6       S      0.794810000000     0.844470000000     0.357220000000     0.291569   
S7       S      0.789030000000     0.253550000000     0.531940000000     0.290887   
S8       S      0.667500000000     0.263670000000     0.115500000000     0.292022   
S9       S      0.734440000000     0.596570000000     0.965750000000     0.291604   
S10      S      0.199250000000     0.749260000000     0.548150000000     0.290237   
S11      S      0.308050000000     0.761420000000     0.037650000000     0.289995   
S12      S      0.605780000000     0.623580000000     0.955930000000     0.290621   
S13      S      0.285330000000     0.347110000000     0.865510000000     0.292779   
S14      S      0.157230000000     0.227930000000     0.372350000000     0.292849   
S15      S      0.602010000000     0.345190000000     0.899620000000     0.290845   
S16      S      0.364190000000     0.403640000000     0.093800000000     0.291059   


