data_structure

_audit_creation_method RASPA-1.0
_audit_creation_date 2023-6-5
_audit_author_name 'Poobodin Mano'

_cell_length_a    54.8599
_cell_length_b    57.1252
_cell_length_c    28.8756
_cell_angle_alpha 89.7752
_cell_angle_beta  90.2249
_cell_angle_gamma 89.9997
_cell_volume      90491.4

_symmetry_cell_setting          triclinic
_symmetry_space_group_name_Hall 'P 1'
_symmetry_space_group_name_H-M  'P 1'
_symmetry_Int_Tables_number     1

_symmetry_equiv_pos_as_xyz 'x,y,z'

loop_
_atom_site_label
_atom_site_type_symbol
_atom_site_fract_x
_atom_site_fract_y
_atom_site_fract_z
_atom_site_charge
C1       C      0.314500000000     0.366970000000     0.993130000000     0.404521   
C2       C      0.312180000000     0.293330000000     0.969340000000     0.405277   
C3       C      0.383270000000     0.335690000000     0.011470000000     0.404388   
C4       C      0.331340000000     0.308950000000     0.107180000000     0.404658   
C5       C      0.321800000000     0.606780000000     0.004710000000     0.40635    
C6       C      0.321460000000     0.676840000000     0.094770000000     0.404534   
C7       C      0.383180000000     0.650960000000     0.027910000000     0.405525   
C8       C      0.310270000000     0.672810000000     0.947440000000     0.403051   
C9       C      0.637380000000     0.331480000000     0.023540000000     0.407515   
C10      C      0.707030000000     0.303170000000     0.957880000000     0.404132   
C11      C      0.698650000000     0.373730000000     0.027800000000     0.407635   
C12      C      0.703730000000     0.303220000000     0.100560000000     0.409094   
C13      C      0.702630000000     0.616250000000     0.016280000000     0.404618   
C14      C      0.700190000000     0.683000000000     0.935650000000     0.40304    
C15      C      0.637990000000     0.655790000000     0.019580000000     0.406114   
C16      C      0.708580000000     0.688340000000     0.079460000000     0.411446   
C17      C      0.845840000000     0.113470000000     0.520640000000     0.407532   
C18      C      0.814350000000     0.182790000000     0.589910000000     0.408195   
C19      C      0.887720000000     0.173440000000     0.542690000000     0.403027   
C20      C      0.818870000000     0.172880000000     0.444820000000     0.402303   
C21      C      0.887180000000     0.803300000000     0.527870000000     0.409286   
C22      C      0.813250000000     0.800540000000     0.571160000000     0.404472   
C23      C      0.851330000000     0.869030000000     0.515510000000     0.404962   
C24      C      0.820060000000     0.816180000000     0.428100000000     0.403926   
C25      C      0.135940000000     0.822650000000     0.508820000000     0.410408   
C26      C      0.208280000000     0.803290000000     0.446680000000     0.40855    
C27      C      0.195000000000     0.871850000000     0.513350000000     0.410266   
C28      C      0.201600000000     0.805050000000     0.595210000000     0.411371   
C29      C      0.139250000000     0.158640000000     0.517280000000     0.413491   
C30      C      0.206010000000     0.179200000000     0.595320000000     0.409924   
C31      C      0.201040000000     0.115070000000     0.505590000000     0.405373   
C32      C      0.208760000000     0.187580000000     0.448950000000     0.409155   
C33      C      0.197190000000     0.933690000000     0.468920000000    -0.0310665  
C34      C      0.216180000000     0.055240000000     0.541800000000    -0.0309399  
C35      C      0.201700000000     0.079590000000     0.457080000000    -0.00439868 
C36      C      0.223920000000     0.080670000000     0.534040000000    -0.00489612 
C37      C      0.227600000000     0.003090000000     0.484500000000    -0.0526368  
C38      C      0.186420000000     0.984910000000     0.528670000000    -0.0525224  
C39      C      0.210100000000     0.018400000000     0.502370000000     0.0624119  
C40      C      0.194810000000     0.054190000000     0.467740000000    -0.0310708  
C41      C      0.203870000000     0.969590000000     0.510620000000     0.0622446  
C42      C      0.218860000000     0.932810000000     0.541450000000    -0.0356892  
C43      C      0.224590000000     0.978880000000     0.488470000000    -0.0553243  
C44      C      0.211480000000     0.907290000000     0.551800000000     0.0170209  
C45      C      0.187190000000     0.908990000000     0.474850000000    -0.00325327 
C46      C      0.189420000000     0.009120000000     0.524630000000    -0.0553682  
C47      C      0.233390000000     0.894510000000     0.567750000000     0.0617775  
C48      C      0.949070000000     0.810150000000     0.561970000000    -0.03051    
C49      C      0.075230000000     0.798120000000     0.481370000000    -0.0310374  
C50      C      0.095760000000     0.837750000000     0.531650000000    -0.00359591 
C51      C      0.099850000000     0.808220000000     0.466550000000    -0.00430987 
C52      C      0.016480000000     0.821750000000     0.487570000000    -0.0529635  
C53      C      0.005120000000     0.784770000000     0.547490000000    -0.0525852  
C54      C      0.035320000000     0.809340000000     0.509450000000     0.0626591  
C55      C      0.071450000000     0.826250000000     0.543820000000    -0.0311493  
C56      C      0.986280000000     0.797300000000     0.525850000000     0.0623385  
C57      C      0.947480000000     0.784020000000     0.495000000000    -0.0358857  
C58      C      0.992160000000     0.815870000000     0.495670000000    -0.0551589  
C59      C      0.921930000000     0.775510000000     0.508980000000     0.0152395  
C60      C      0.923820000000     0.802060000000     0.577420000000    -0.00661848 
C61      C      0.029480000000     0.790720000000     0.539540000000    -0.0554565  
C62      C      0.908470000000     0.768010000000     0.467260000000     0.063261   
C63      C      0.847070000000     0.050870000000     0.559770000000    -0.0304585  
C64      C      0.860060000000     0.930090000000     0.476530000000    -0.0309647  
C65      C      0.853080000000     0.904630000000     0.563260000000    -0.00501563 
C66      C      0.868770000000     0.904710000000     0.480630000000    -0.00506063 
C67      C      0.875770000000     0.981510000000     0.533390000000    -0.052912   
C68      C      0.831580000000     0.000070000000     0.501540000000    -0.0523518  
C69      C      0.857140000000     0.966360000000     0.519260000000     0.0624729  
C70      C      0.844970000000     0.929960000000     0.555560000000    -0.0308292  
C71      C      0.850210000000     0.015240000000     0.515710000000     0.0621275  
C72      C      0.862860000000     0.052080000000     0.482090000000    -0.0355906  
C73      C      0.872420000000     0.005740000000     0.531730000000    -0.0552171  
C74      C      0.855240000000     0.077790000000     0.474790000000     0.0163213  
C75      C      0.837410000000     0.075870000000     0.557130000000    -0.00535517 
C76      C      0.834920000000     0.975820000000     0.503290000000    -0.0553961  
C77      C      0.875490000000     0.090000000000     0.451270000000     0.0585125  
C78      C      0.075750000000     0.177910000000     0.494290000000    -0.0306939  
C79      C      0.950130000000     0.162290000000     0.576730000000    -0.0309151  
C80      C      0.923830000000     0.197170000000     0.522110000000    -0.00521204 
C81      C      0.924730000000     0.170340000000     0.591540000000    -0.00508895 
C82      C      0.006050000000     0.189460000000     0.562030000000    -0.0526968  
C83      C      0.018960000000     0.151600000000     0.506100000000    -0.0522595  
C84      C      0.987750000000     0.175640000000     0.542130000000     0.0628109  
C85      C      0.949230000000     0.188270000000     0.509310000000    -0.0308524  
C86      C      0.037270000000     0.165330000000     0.526250000000     0.0621876  
C87      C      0.075000000000     0.152430000000     0.561370000000    -0.0358243  
C88      C      0.030610000000     0.184430000000     0.554240000000    -0.0549356  
C89      C      0.100480000000     0.142560000000     0.550850000000     0.0162965  
C90      C      0.100730000000     0.168940000000     0.479450000000    -0.00546396 
C91      C      0.994390000000     0.156670000000     0.513820000000    -0.0554608  
C92      C      0.113060000000     0.138620000000     0.595550000000     0.0655152  
C93      C      0.785380000000     0.752540000000     0.643010000000    -0.0309007  
C94      C      0.713770000000     0.731110000000     0.853610000000    -0.0313415  
C95      C      0.719290000000     0.680370000000     0.858910000000    -0.00426165 
C96      C      0.695950000000     0.716770000000     0.882880000000    -0.00388865 
C97      C      0.727450000000     0.732120000000     0.735930000000    -0.0530728  
C98      C      0.771290000000     0.754060000000     0.759690000000    -0.0522464  
C99      C      0.736160000000     0.730540000000     0.781470000000     0.062688   
C100     C      0.736130000000     0.696300000000     0.830960000000    -0.031137   
C101     C      0.762670000000     0.755500000000     0.714050000000     0.0620226  
C102     C      0.763970000000     0.788120000000     0.660480000000    -0.0355141  
C103     C      0.740520000000     0.744470000000     0.702390000000    -0.0551839  
C104     C      0.781340000000     0.803340000000     0.631350000000     0.016422   
C105     C      0.804910000000     0.764990000000     0.614740000000    -0.00403539 
C106     C      0.758210000000     0.741690000000     0.793250000000    -0.0556158  
C107     C      0.766480000000     0.819310000000     0.602440000000     0.0613845  
C108     C      0.715410000000     0.732250000000     0.174750000000    -0.0308664  
C109     C      0.810180000000     0.787340000000     0.318080000000    -0.0305516  
C110     C      0.781970000000     0.815860000000     0.381960000000    -0.0059808  
C111     C      0.822430000000     0.807330000000     0.344490000000    -0.00550207 
C112     C      0.763960000000     0.783590000000     0.236990000000    -0.0529612  
C113     C      0.759640000000     0.736360000000     0.261510000000    -0.0522854  
C114     C      0.772690000000     0.775960000000     0.280100000000     0.0625686  
C115     C      0.770980000000     0.795600000000     0.354320000000    -0.030401   
C116     C      0.751070000000     0.743950000000     0.218230000000     0.0618776  
C117     C      0.755490000000     0.724470000000     0.144710000000    -0.0357787  
C118     C      0.753240000000     0.767790000000     0.206200000000    -0.0550621  
C119     C      0.746630000000     0.703500000000     0.115850000000     0.0165754  
C120     C      0.704090000000     0.711400000000     0.149740000000    -0.00476273 
C121     C      0.770360000000     0.752170000000     0.292300000000    -0.0553509  
C122     C      0.758540000000     0.704890000000     0.070090000000     0.0590134  
C123     C      0.798330000000     0.228190000000     0.676370000000    -0.0306954  
C124     C      0.716990000000     0.256640000000     0.869850000000    -0.0307843  
C125     C      0.740210000000     0.299730000000     0.901510000000    -0.00468996 
C126     C      0.711970000000     0.265300000000     0.918970000000    -0.00484755 
C127     C      0.770080000000     0.238290000000     0.814880000000    -0.0528837  
C128     C      0.745220000000     0.244780000000     0.731070000000    -0.0527075  
C129     C      0.749340000000     0.252540000000     0.813540000000     0.0624476  
C130     C      0.743670000000     0.289380000000     0.853240000000    -0.0306983  
C131     C      0.765990000000     0.230500000000     0.732410000000     0.0618802  
C132     C      0.773990000000     0.193960000000     0.693230000000    -0.0356917  
C133     C      0.778430000000     0.227360000000     0.774770000000    -0.0551816  
C134     C      0.779390000000     0.182980000000     0.645710000000     0.0154402  
C135     C      0.804210000000     0.219680000000     0.627680000000    -0.00580447 
C136     C      0.736920000000     0.255780000000     0.771210000000    -0.0555831  
C137     C      0.782250000000     0.157490000000     0.652650000000     0.062401   
C138     C      0.749550000000     0.274310000000     0.176600000000    -0.0303678  
C139     C      0.768840000000     0.192720000000     0.370470000000    -0.030642   
C140     C      0.821820000000     0.189370000000     0.365940000000    -0.00566687 
C141     C      0.782070000000     0.172630000000     0.395210000000    -0.00569284 
C142     C      0.764970000000     0.211110000000     0.254930000000    -0.052907   
C143     C      0.750080000000     0.254550000000     0.289100000000    -0.0526352  
C144     C      0.769710000000     0.216810000000     0.301200000000     0.0625703  
C145     C      0.807210000000     0.208940000000     0.342590000000    -0.0305371  
C146     C      0.745370000000     0.248880000000     0.242780000000     0.0623712  
C147     C      0.710360000000     0.257180000000     0.194120000000    -0.0354916  
C148     C      0.752970000000     0.226970000000     0.225800000000    -0.0551638  
C149     C      0.696470000000     0.276950000000     0.168960000000     0.0153765  
C150     C      0.737990000000     0.295370000000     0.152490000000    -0.00592959 
C151     C      0.762220000000     0.238730000000     0.318150000000    -0.055301   
C152     C      0.675440000000     0.266310000000     0.144820000000     0.0622996  
C153     C      0.707150000000     0.435740000000     0.986640000000    -0.0306518  
C154     C      0.714800000000     0.557900000000     0.064290000000    -0.0309379  
C155     C      0.711340000000     0.580010000000     0.973300000000    -0.00497167 
C156     C      0.722440000000     0.583520000000     0.058100000000    -0.00512918 
C157     C      0.734480000000     0.505010000000     0.016590000000    -0.0528151  
C158     C      0.689280000000     0.486330000000     0.041660000000    -0.0526606  
C159     C      0.715070000000     0.520110000000     0.026310000000     0.0623183  
C160     C      0.703920000000     0.554660000000     0.982670000000    -0.0306307  
C161     C      0.708610000000     0.471220000000     0.031430000000     0.062355   
C162     C      0.719920000000     0.434140000000     0.066300000000    -0.03515    
C163     C      0.731360000000     0.480770000000     0.019040000000    -0.0553934  
C164     C      0.711550000000     0.408570000000     0.072450000000     0.0163313  
C165     C      0.696750000000     0.411010000000     0.987210000000    -0.00358826 
C166     C      0.692390000000     0.510580000000     0.039110000000    -0.0553508  
C167     C      0.731280000000     0.395430000000     0.095890000000     0.0613618  
C168     C      0.245910000000     0.775590000000     0.672990000000    -0.0303964  
C169     C      0.260960000000     0.702020000000     0.880660000000    -0.0307686  
C170     C      0.312450000000     0.690510000000     0.869810000000    -0.00514475 
C171     C      0.271600000000     0.681000000000     0.906870000000    -0.00521919 
C172     C      0.255020000000     0.715240000000     0.762850000000    -0.0528212  
C173     C      0.248570000000     0.761880000000     0.789210000000    -0.0526437  
C174     C      0.262600000000     0.722420000000     0.806910000000     0.0624165  
C175     C      0.299990000000     0.711160000000     0.845630000000    -0.0306379  
C176     C      0.241050000000     0.754720000000     0.745060000000     0.062225   
C177     C      0.205490000000     0.765800000000     0.700170000000    -0.0355178  
C178     C      0.244380000000     0.731190000000     0.732050000000    -0.0552292  
C179     C      0.193760000000     0.785970000000     0.672400000000     0.0154452  
C180     C      0.236500000000     0.796600000000     0.645480000000    -0.0060581  
C181     C      0.259320000000     0.745930000000     0.819960000000    -0.0553942  
C182     C      0.169830000000     0.777760000000     0.655300000000     0.0610324  
C183     C      0.234710000000     0.754260000000     0.377660000000    -0.030964   
C184     C      0.303000000000     0.727410000000     0.165590000000    -0.0309749  
C185     C      0.306640000000     0.676670000000     0.175150000000    -0.00539858 
C186     C      0.322140000000     0.714060000000     0.137730000000    -0.00483493 
C187     C      0.292800000000     0.734510000000     0.283910000000    -0.0529372  
C188     C      0.245430000000     0.748310000000     0.260280000000    -0.0524661  
C189     C      0.283260000000     0.728550000000     0.240490000000     0.0625478  
C190     C      0.288050000000     0.691550000000     0.201130000000    -0.0304974  
C191     C      0.254980000000     0.754310000000     0.303700000000     0.0619866  
C192     C      0.250790000000     0.790300000000     0.346650000000    -0.0355859  
C193     C      0.278850000000     0.747230000000     0.315380000000    -0.0550815  
C194     C      0.232640000000     0.805410000000     0.373990000000     0.0160713  
C195     C      0.214980000000     0.766810000000     0.405140000000    -0.00471353 
C196     C      0.259360000000     0.735490000000     0.228870000000    -0.055465   
C197     C      0.246020000000     0.825980000000     0.391750000000     0.0615146  
C198     C      0.448510000000     0.659470000000     0.996620000000    -0.0303525  
C199     C      0.576230000000     0.643270000000     0.066820000000    -0.0309881  
C200     C      0.598330000000     0.659400000000     0.980570000000    -0.00460273 
C201     C      0.602770000000     0.636860000000     0.056610000000    -0.00481439 
C202     C      0.521370000000     0.631030000000     0.008530000000    -0.0531628  
C203     C      0.500800000000     0.667360000000     0.059940000000    -0.0528572  
C204     C      0.536600000000     0.647430000000     0.029970000000     0.0621809  
C205     C      0.572160000000     0.664890000000     0.994810000000    -0.0305486  
C206     C      0.485550000000     0.651000000000     0.038300000000     0.0618493  
C207     C      0.447460000000     0.633400000000     0.062490000000    -0.035549   
C208     C      0.496070000000     0.632770000000     0.012420000000    -0.0555607  
C209     C      0.420340000000     0.638520000000     0.071920000000     0.0158136  
C210     C      0.422150000000     0.667110000000     0.003280000000    -0.00582987 
C211     C      0.526130000000     0.665710000000     0.055750000000    -0.0556139  
C212     C      0.408470000000     0.616160000000     0.084390000000     0.059734   
C213     C      0.249780000000     0.194180000000     0.690750000000    -0.0305346  
C214     C      0.264380000000     0.268960000000     0.895390000000    -0.0308471  
C215     C      0.314540000000     0.257860000000     0.921030000000    -0.00516002 
C216     C      0.273760000000     0.274750000000     0.943980000000    -0.00525467 
C217     C      0.257370000000     0.217400000000     0.832980000000    -0.0528126  
C218     C      0.256030000000     0.245350000000     0.753260000000    -0.0527193  
C219     C      0.266890000000     0.240120000000     0.834420000000     0.0623079  
C220     C      0.303740000000     0.252760000000     0.873220000000    -0.0308489  
C221     C      0.246470000000     0.222630000000     0.751830000000     0.0624188  
C222     C      0.210250000000     0.208380000000     0.713190000000    -0.0352148  
C223     C      0.247270000000     0.208640000000     0.792100000000    -0.0553823  
C224     C      0.199000000000     0.203520000000     0.665260000000     0.0162119  
C225     C      0.241750000000     0.189410000000     0.641080000000    -0.00444883 
C226     C      0.266220000000     0.254080000000     0.794110000000    -0.055285   
C227     C      0.174810000000     0.192740000000     0.672440000000     0.0636218  
C228     C      0.251270000000     0.203830000000     0.354280000000    -0.0305837  
C229     C      0.299270000000     0.300920000000     0.214440000000    -0.0307021  
C230     C      0.336220000000     0.275850000000     0.161950000000    -0.00556642 
C231     C      0.319350000000     0.314360000000     0.189020000000    -0.00556618 
C232     C      0.298060000000     0.258950000000     0.302130000000    -0.0531996  
C233     C      0.251600000000     0.246780000000     0.270040000000    -0.0528264  
C234     C      0.291000000000     0.265240000000     0.257140000000     0.0623105  
C235     C      0.315650000000     0.263470000000     0.187950000000    -0.0306321  
C236     C      0.258690000000     0.240420000000     0.315010000000     0.0619682  
C237     C      0.235230000000     0.239750000000     0.385840000000    -0.0355685  
C238     C      0.282120000000     0.246620000000     0.330920000000    -0.0553033  
C239     C      0.214590000000     0.226850000000     0.411460000000     0.0156336  
C240     C      0.231150000000     0.189130000000     0.376140000000    -0.00579669 
C241     C      0.267570000000     0.259050000000     0.241210000000    -0.0554669  
C242     C      0.211370000000     0.238270000000     0.456870000000     0.0600566  
C243     C      0.573770000000     0.330720000000     0.975600000000    -0.0304468  
C244     C      0.446500000000     0.347050000000     0.047590000000    -0.0310031  
C245     C      0.420130000000     0.335330000000     0.962900000000    -0.00499273 
C246     C      0.420170000000     0.355310000000     0.041130000000    -0.00503429 
C247     C      0.500460000000     0.358290000000     0.990180000000    -0.0528703  
C248     C      0.519010000000     0.317470000000     0.030880000000    -0.0526681  
C249     C      0.484360000000     0.341190000000     0.006600000000     0.0620556  
C250     C      0.446440000000     0.327840000000     0.972510000000    -0.0307688  
C251     C      0.535130000000     0.334620000000     0.014580000000     0.0620144  
C252     C      0.572060000000     0.348200000000     0.051270000000    -0.0352571  
C253     C      0.525630000000     0.355130000000     0.994090000000    -0.0552403  
C254     C      0.598530000000     0.341420000000     0.062970000000     0.0161046  
C255     C      0.599790000000     0.321930000000     0.982650000000    -0.00493025 
C256     C      0.493820000000     0.320650000000     0.027000000000    -0.0553321  
C257     C      0.610170000000     0.361700000000     0.085760000000     0.060199   
C258     C      0.320580000000     0.546380000000     0.952930000000    -0.0305947  
C259     C      0.292390000000     0.424680000000     0.016590000000    -0.0307753  
C260     C      0.312160000000     0.399830000000     0.937180000000    -0.0055981  
C261     C      0.285310000000     0.399190000000     0.007420000000    -0.00588869 
C262     C      0.287190000000     0.477310000000     0.956060000000    -0.0529377  
C263     C      0.324930000000     0.493940000000     0.012450000000    -0.0528804  
C264     C      0.302460000000     0.461350000000     0.978980000000     0.0623846  
C265     C      0.318670000000     0.425260000000     0.948200000000    -0.0306638  
C266     C      0.309600000000     0.509900000000     0.989730000000     0.0626924  
C267     C      0.292810000000     0.546470000000     0.017060000000    -0.0354183  
C268     C      0.290700000000     0.501400000000     0.961190000000    -0.0555172  
C269     C      0.299720000000     0.571520000000     0.031610000000     0.0164436  
C270     C      0.330560000000     0.570680000000     0.963720000000    -0.00398497 
C271     C      0.321500000000     0.469860000000     0.007130000000    -0.0553082  
C272     C      0.277030000000     0.584850000000     0.039310000000     0.0610742  
H1       H      0.175600000000     0.020570000000     0.538660000000     0.0433454  
H2       H      0.184170000000     0.943800000000     0.446910000000     0.03729    
H3       H      0.221640000000     0.942020000000     0.575020000000     0.0412659  
H4       H      0.217970000000     0.079630000000     0.434220000000     0.0395932  
H5       H      0.167470000000     0.910150000000     0.483390000000     0.0407236  
H6       H      0.230340000000     0.046430000000     0.563410000000     0.0378482  
H7       H      0.193100000000     0.044600000000     0.434400000000     0.0370518  
H8       H      0.224070000000     0.089830000000     0.567950000000     0.0480239  
H9       H      0.170370000000     0.978010000000     0.545650000000     0.0472912  
H10      H      0.188520000000     0.899820000000     0.441010000000     0.0477342  
H11      H      0.243570000000     0.009990000000     0.467220000000     0.0469551  
H12      H      0.214960000000     0.932950000000     0.450420000000     0.0408239  
H13      H      0.186460000000     0.088000000000     0.437730000000     0.0457937  
H14      H      0.198310000000     0.907380000000     0.580970000000     0.0398782  
H15      H      0.198670000000     0.054930000000     0.561170000000     0.0411699  
H16      H      0.176760000000     0.053840000000     0.485270000000     0.0402053  
H17      H      0.238300000000     0.967460000000     0.474020000000     0.0436398  
H18      H      0.236530000000     0.933320000000     0.522460000000     0.0437239  
H19      H      0.242840000000     0.080840000000     0.520400000000     0.0396308  
H20      H      0.043690000000     0.781000000000     0.557210000000     0.0441435  
H21      H      0.959870000000     0.814790000000     0.593330000000     0.0370243  
H22      H      0.957300000000     0.769480000000     0.477440000000     0.0417951  
H23      H      0.092080000000     0.853780000000     0.510780000000     0.0385069  
H24      H      0.926110000000     0.787260000000     0.602200000000     0.0383871  
H25      H      0.066030000000     0.790720000000     0.450270000000     0.0376562  
H26      H      0.059410000000     0.839770000000     0.559390000000     0.0374076  
H27      H      0.111790000000     0.793630000000     0.455080000000     0.0464017  
H28      H      0.000880000000     0.770550000000     0.571020000000     0.047134   
H29      H      0.914810000000     0.816590000000     0.596260000000     0.0466014  
H30      H      0.020710000000     0.836210000000     0.464620000000     0.0466982  
H31      H      0.947100000000     0.826140000000     0.540060000000     0.0403128  
H32      H      0.104910000000     0.843280000000     0.564260000000     0.0475468  
H33      H      0.924400000000     0.759740000000     0.531240000000     0.0371298  
H34      H      0.078370000000     0.783620000000     0.506590000000     0.0414255  
H35      H      0.074590000000     0.812250000000     0.570130000000     0.042542   
H36      H      0.977970000000     0.825990000000     0.478830000000     0.0429519  
H37      H      0.945680000000     0.798850000000     0.470030000000     0.0441989  
H38      H      0.096890000000     0.820010000000     0.436320000000     0.0387472  
H39      H      0.820200000000     0.964490000000     0.492340000000     0.0432111  
H40      H      0.835540000000     0.040860000000     0.584550000000     0.0383427  
H41      H      0.862700000000     0.043170000000     0.447820000000     0.0409328  
H42      H      0.870810000000     0.904690000000     0.582050000000     0.0398332  
H43      H      0.817300000000     0.075230000000     0.552220000000     0.0435949  
H44      H      0.872060000000     0.939410000000     0.451530000000     0.0370449  
H45      H      0.845680000000     0.939200000000     0.589410000000     0.037731   
H46      H      0.865840000000     0.895860000000     0.446830000000     0.0449028  
H47      H      0.814390000000     0.007110000000     0.489230000000     0.0475118  
H48      H      0.840880000000     0.084440000000     0.591060000000     0.0496555  
H49      H      0.892920000000     0.974470000000     0.545880000000     0.0465508  
H50      H      0.866060000000     0.051090000000     0.573600000000     0.0394467  
H51      H      0.839510000000     0.895710000000     0.585760000000     0.0484656  
H52      H      0.839260000000     0.078150000000     0.450980000000     0.0395224  
H53      H      0.841120000000     0.930300000000     0.462480000000     0.0395009  
H54      H      0.825750000000     0.930140000000     0.542990000000     0.0406842  
H55      H      0.887100000000     0.017020000000     0.543050000000     0.0426462  
H56      H      0.881860000000     0.051200000000     0.495920000000     0.0422996  
H57      H      0.888700000000     0.904730000000     0.487830000000     0.0384666  
H58      H      0.980610000000     0.145740000000     0.497940000000     0.0443881  
H59      H      0.065560000000     0.183510000000     0.462720000000     0.0375397  
H60      H      0.064230000000     0.138700000000     0.579650000000     0.04174    
H61      H      0.925890000000     0.213690000000     0.541980000000     0.0392624  
H62      H      0.098120000000     0.155630000000     0.451860000000     0.0392375  
H63      H      0.960700000000     0.157480000000     0.608350000000     0.0377624  
H64      H      0.959140000000     0.202610000000     0.491190000000     0.0378216  
H65      H      0.915100000000     0.155440000000     0.608280000000     0.0466195  
H66      H      0.023790000000     0.136860000000     0.484520000000     0.0472352  
H67      H      0.110950000000     0.183820000000     0.463930000000     0.0479272  
H68      H      0.001220000000     0.204120000000     0.583810000000     0.0472635  
H69      H      0.078180000000     0.193490000000     0.516930000000     0.0415656  
H70      H      0.913550000000     0.201250000000     0.489830000000     0.0490024  
H71      H      0.098110000000     0.125230000000     0.534040000000     0.0371867  
H72      H      0.948290000000     0.146400000000     0.554760000000     0.0414793  
H73      H      0.947340000000     0.173290000000     0.485000000000     0.0422811  
H74      H      0.044370000000     0.195330000000     0.570250000000     0.0441286  
H75      H      0.076660000000     0.167780000000     0.584960000000     0.0459596  
H76      H      0.926830000000     0.184420000000     0.617730000000     0.0388189  
H77      H      0.765380000000     0.740650000000     0.828160000000     0.0440299  
H78      H      0.793490000000     0.736260000000     0.657810000000     0.0371977  
H79      H      0.756460000000     0.799100000000     0.688880000000     0.0410405  
H80      H      0.705670000000     0.672470000000     0.834990000000     0.0398448  
H81      H      0.822190000000     0.765030000000     0.635030000000     0.0410294  
H82      H      0.704100000000     0.746940000000     0.840470000000     0.0374942  
H83      H      0.743190000000     0.686210000000     0.800960000000     0.0374707  
H84      H      0.691210000000     0.726970000000     0.914330000000     0.046055   
H85      H      0.788300000000     0.762430000000     0.769140000000     0.0475374  
H86      H      0.808390000000     0.754630000000     0.582870000000     0.0445694  
H87      H      0.710560000000     0.723560000000     0.726380000000     0.0466679  
H88      H      0.770060000000     0.747350000000     0.619760000000     0.0385384  
H89      H      0.730300000000     0.665860000000     0.874010000000     0.0481792  
H90      H      0.792250000000     0.814360000000     0.655400000000     0.0413828  
H91      H      0.729220000000     0.736960000000     0.875890000000     0.0410337  
H92      H      0.751920000000     0.701520000000     0.852970000000     0.041763   
H93      H      0.733470000000     0.745240000000     0.667370000000     0.0425589  
H94      H      0.748260000000     0.782100000000     0.638920000000     0.0422066  
H95      H      0.678900000000     0.714150000000     0.862600000000     0.0402458  
H96      H      0.776990000000     0.745810000000     0.325380000000     0.0435233  
H97      H      0.704650000000     0.735620000000     0.206660000000     0.0368665  
H98      H      0.774950000000     0.721490000000     0.154280000000     0.041391   
H99      H      0.778340000000     0.832460000000     0.362900000000     0.0393501  
H100     H      0.701090000000     0.697090000000     0.175310000000     0.0403257  
H101     H      0.819610000000     0.785240000000     0.284280000000     0.038574   
H102     H      0.751460000000     0.799600000000     0.347260000000     0.0375221  
H103     H      0.841640000000     0.802420000000     0.352160000000     0.0509874  
H104     H      0.758160000000     0.718080000000     0.271200000000     0.047297   
H105     H      0.685830000000     0.716740000000     0.136490000000     0.0446986  
H106     H      0.765660000000     0.801830000000     0.227120000000     0.0467098  
H107     H      0.714090000000     0.748050000000     0.152150000000     0.038727   
H108     H      0.772700000000     0.816920000000     0.416060000000     0.0481187  
H109     H      0.753050000000     0.687160000000     0.133060000000     0.0404338  
H110     H      0.812400000000     0.770800000000     0.338220000000     0.0423492  
H111     H      0.771910000000     0.779320000000     0.375620000000     0.0403679  
H112     H      0.746840000000     0.774150000000     0.172960000000     0.0425543  
H113     H      0.754610000000     0.740860000000     0.123600000000     0.0425559  
H114     H      0.822680000000     0.823100000000     0.321780000000     0.0395326  
H115     H      0.720930000000     0.266840000000     0.769220000000     0.0425685  
H116     H      0.798590000000     0.247680000000     0.676100000000     0.0366724  
H117     H      0.755710000000     0.187880000000     0.704940000000     0.0413217  
H118     H      0.756450000000     0.295370000000     0.923050000000     0.0401517  
H119     H      0.791880000000     0.228700000000     0.602680000000     0.0385567  
H120     H      0.715410000000     0.237210000000     0.869710000000     0.0375949  
H121     H      0.762060000000     0.294500000000     0.840530000000     0.0369761  
H122     H      0.692480000000     0.262010000000     0.927250000000     0.0467667  
H123     H      0.735520000000     0.247430000000     0.698740000000     0.0465542  
H124     H      0.823160000000     0.225140000000     0.619370000000     0.045542   
H125     H      0.779870000000     0.235740000000     0.847160000000     0.046909   
H126     H      0.812750000000     0.221990000000     0.700780000000     0.0395427  
H127     H      0.739360000000     0.319130000000     0.898380000000     0.0461412  
H128     H      0.763210000000     0.185770000000     0.623050000000     0.0386444  
H129     H      0.702920000000     0.263870000000     0.845850000000     0.0393706  
H130     H      0.729810000000     0.296920000000     0.829140000000     0.0392078  
H131     H      0.794600000000     0.216560000000     0.776820000000     0.0428916  
H132     H      0.787720000000     0.187790000000     0.719140000000     0.043179   
H133     H      0.723140000000     0.254840000000     0.943730000000     0.0397505  
H134     H      0.765900000000     0.243670000000     0.353640000000     0.0426973  
H135     H      0.767390000000     0.279880000000     0.191420000000     0.0379929  
H136     H      0.698680000000     0.250280000000     0.222570000000     0.0415894  
H137     H      0.825660000000     0.175620000000     0.339810000000     0.0411054  
H138     H      0.737860000000     0.310340000000     0.177000000000     0.0449959  
H139     H      0.750480000000     0.186450000000     0.359630000000     0.037497   
H140     H      0.817250000000     0.214760000000     0.311150000000     0.0375     
H141     H      0.772130000000     0.168290000000     0.427610000000     0.0461352  
H142     H      0.744500000000     0.271380000000     0.302540000000     0.0476168  
H143     H      0.749820000000     0.300390000000     0.122870000000     0.0488443  
H144     H      0.770810000000     0.194400000000     0.241330000000     0.0470388  
H145     H      0.753060000000     0.260340000000     0.150640000000     0.0394055  
H146     H      0.839580000000     0.196590000000     0.377860000000     0.0488647  
H147     H      0.689190000000     0.289080000000     0.195540000000     0.0408806  
H148     H      0.766400000000     0.207430000000     0.395220000000     0.0391665  
H149     H      0.805830000000     0.224070000000     0.366640000000     0.0399047  
H150     H      0.749820000000     0.222210000000     0.190050000000     0.0428591  
H151     H      0.713880000000     0.242540000000     0.169590000000     0.0427958  
H152     H      0.781530000000     0.156950000000     0.372540000000     0.0399598  
H153     H      0.677040000000     0.521850000000     0.046460000000     0.0425446  
H154     H      0.697020000000     0.446110000000     0.960080000000     0.036933   
H155     H      0.718790000000     0.443040000000     0.100500000000     0.0416564  
H156     H      0.730200000000     0.580150000000     0.959330000000     0.0403458  
H157     H      0.676500000000     0.412160000000     0.986490000000     0.0419819  
H158     H      0.725980000000     0.550060000000     0.092620000000     0.0375912  
H159     H      0.706930000000     0.544380000000     0.950520000000     0.0368053  
H160     H      0.717720000000     0.593350000000     0.089990000000     0.0459724  
H161     H      0.671660000000     0.479240000000     0.051050000000     0.0480086  
H162     H      0.702310000000     0.402010000000     0.954810000000     0.0451241  
H163     H      0.751980000000     0.512100000000     0.006430000000     0.0468644  
H164     H      0.726660000000     0.435130000000     0.976090000000     0.0388653  
H165     H      0.699070000000     0.587430000000     0.946250000000     0.0467917  
H166     H      0.695550000000     0.408440000000     0.095990000000     0.0440253  
H167     H      0.695310000000     0.557270000000     0.074850000000     0.0394516  
H168     H      0.684130000000     0.554040000000     0.991070000000     0.0392849  
H169     H      0.746570000000     0.469510000000     0.010700000000     0.0428696  
H170     H      0.739360000000     0.434770000000     0.055100000000     0.0423001  
H171     H      0.742570000000     0.584210000000     0.053950000000     0.0403455  
H172     H      0.265210000000     0.751960000000     0.853670000000     0.0427276  
H173     H      0.265030000000     0.779280000000     0.683810000000     0.0379658  
H174     H      0.194350000000     0.762490000000     0.731730000000     0.0413591  
H175     H      0.313850000000     0.675790000000     0.844870000000     0.0397671  
H176     H      0.239510000000     0.812690000000     0.666290000000     0.0440012  
H177     H      0.241360000000     0.698480000000     0.873430000000     0.0376495  
H178     H      0.309530000000     0.714520000000     0.812300000000     0.0371214  
H179     H      0.262950000000     0.679960000000     0.941590000000     0.046152   
H180     H      0.246250000000     0.779930000000     0.799630000000     0.0473107  
H181     H      0.247660000000     0.798260000000     0.613550000000     0.0496883  
H182     H      0.257570000000     0.697250000000     0.752240000000     0.0468386  
H183     H      0.246020000000     0.759880000000     0.650240000000     0.0399347  
H184     H      0.331310000000     0.695780000000     0.879490000000     0.0473112  
H185     H      0.190390000000     0.800700000000     0.696600000000     0.0392229  
H186     H      0.262160000000     0.717830000000     0.903000000000     0.0391854  
H187     H      0.301800000000     0.727070000000     0.867570000000     0.0396363  
H188     H      0.238920000000     0.725190000000     0.698070000000     0.0428951  
H189     H      0.205340000000     0.749510000000     0.678980000000     0.0430507  
H190     H      0.266760000000     0.664760000000     0.887830000000     0.0400587  
H191     H      0.251500000000     0.730950000000     0.195670000000     0.0430319  
H192     H      0.227910000000     0.736440000000     0.368870000000     0.0373142  
H193     H      0.255630000000     0.799780000000     0.314140000000     0.0411813  
H194     H      0.322310000000     0.673030000000     0.198630000000     0.0408371  
H195     H      0.197330000000     0.765000000000     0.386400000000     0.0417072  
H196     H      0.310100000000     0.745290000000     0.172720000000     0.0371251  
H197     H      0.283940000000     0.682760000000     0.234680000000     0.0380064  
H198     H      0.324070000000     0.722560000000     0.103210000000     0.0444684  
H199     H      0.227090000000     0.753560000000     0.250870000000     0.0471022  
H200     H      0.212960000000     0.757700000000     0.439050000000     0.046072   
H201     H      0.311090000000     0.729170000000     0.293400000000     0.0469516  
H202     H      0.251300000000     0.752250000000     0.399680000000     0.0393923  
H203     H      0.298070000000     0.659620000000     0.166270000000     0.0503286  
H204     H      0.218480000000     0.811920000000     0.349470000000     0.0396312  
H205     H      0.286080000000     0.729140000000     0.144420000000     0.0394536  
H206     H      0.270860000000     0.692550000000     0.180550000000     0.0409357  
H207     H      0.286660000000     0.751510000000     0.348750000000     0.0428853  
H208     H      0.267900000000     0.787870000000     0.367140000000     0.0429915  
H209     H      0.339990000000     0.715490000000     0.155890000000     0.0386942  
H210     H      0.537490000000     0.678790000000     0.072140000000     0.0424111  
H211     H      0.458560000000     0.674130000000     0.979800000000     0.0368393  
H212     H      0.456530000000     0.628870000000     0.095940000000     0.0409017  
H213     H      0.598020000000     0.644870000000     0.955050000000     0.0386136  
H214     H      0.422020000000     0.684540000000     0.020330000000     0.0401719  
H215     H      0.568170000000     0.629150000000     0.088590000000     0.0368704  
H216     H      0.560990000000     0.667080000000     0.962810000000     0.0365914  
H217     H      0.613420000000     0.637670000000     0.089420000000     0.0445848  
H218     H      0.492980000000     0.681590000000     0.079590000000     0.0465728  
H219     H      0.413700000000     0.669370000000     0.968450000000     0.0479142  
H220     H      0.529180000000     0.617030000000     0.988200000000     0.0464344  
H221     H      0.449060000000     0.644130000000     0.972950000000     0.0395407  
H222     H      0.606070000000     0.675040000000     0.962880000000     0.0454331  
H223     H      0.419220000000     0.650210000000     0.102530000000     0.0381439  
H224     H      0.575790000000     0.659850000000     0.086920000000     0.0388937  
H225     H      0.571770000000     0.681710000000     0.014200000000     0.0391349  
H226     H      0.484770000000     0.620070000000     0.994800000000     0.0427125  
H227     H      0.449110000000     0.617930000000     0.039220000000     0.0424387  
H228     H      0.603410000000     0.618470000000     0.044190000000     0.0379299  
H229     H      0.273590000000     0.271650000000     0.794240000000     0.0427319  
H230     H      0.269690000000     0.198000000000     0.690620000000     0.0370716  
H231     H      0.200290000000     0.223320000000     0.729110000000     0.0417204  
H232     H      0.313520000000     0.241630000000     0.942350000000     0.039012   
H233     H      0.249250000000     0.203380000000     0.618280000000     0.0419125  
H234     H      0.244500000000     0.265230000000     0.897570000000     0.0371816  
H235     H      0.313010000000     0.237050000000     0.858910000000     0.0369849  
H236     H      0.264940000000     0.291180000000     0.955860000000     0.0449032  
H237     H      0.255610000000     0.256270000000     0.722530000000     0.0478746  
H238     H      0.250060000000     0.172600000000     0.629870000000     0.046776   
H239     H      0.257870000000     0.206440000000     0.863660000000     0.0466285  
H240     H      0.246790000000     0.178190000000     0.712220000000     0.0396441  
H241     H      0.334100000000     0.262500000000     0.917010000000     0.0472086  
H242     H      0.196040000000     0.220580000000     0.647450000000     0.0426644  
H243     H      0.266980000000     0.284500000000     0.872520000000     0.0394707  
H244     H      0.307430000000     0.267860000000     0.849770000000     0.0398679  
H245     H      0.240130000000     0.190980000000     0.791920000000     0.0431516  
H246     H      0.207850000000     0.192860000000     0.736330000000     0.0433578  
H247     H      0.268200000000     0.260460000000     0.967960000000     0.0379967  
H248     H      0.261700000000     0.263590000000     0.206490000000     0.0425723  
H249     H      0.257350000000     0.194920000000     0.322080000000     0.0366532  
H250     H      0.228850000000     0.257740000000     0.376890000000     0.0412085  
H251     H      0.352600000000     0.276280000000     0.184750000000     0.0380508  
H252     H      0.217070000000     0.185430000000     0.349330000000     0.0399529  
H253     H      0.294000000000     0.311050000000     0.245690000000     0.0374193  
H254     H      0.322380000000     0.246040000000     0.199700000000     0.0366009  
H255     H      0.311960000000     0.331440000000     0.176850000000     0.0475491  
H256     H      0.233690000000     0.242050000000     0.257260000000     0.0467809  
H257     H      0.239170000000     0.172050000000     0.386820000000     0.0462079  
H258     H      0.316040000000     0.263510000000     0.314780000000     0.0464111  
H259     H      0.267100000000     0.204720000000     0.378500000000     0.0391125  
H260     H      0.340870000000     0.265570000000     0.130590000000     0.0452327  
H261     H      0.197450000000     0.229340000000     0.391380000000     0.0394832  
H262     H      0.283040000000     0.299550000000     0.191320000000     0.0401623  
H263     H      0.300050000000     0.260670000000     0.163800000000     0.0395547  
H264     H      0.288150000000     0.241820000000     0.365390000000     0.0425174  
H265     H      0.251420000000     0.241480000000     0.409100000000     0.0424757  
H266     H      0.334370000000     0.317970000000     0.213950000000     0.0387541  
H267     H      0.481760000000     0.307180000000     0.040010000000     0.0427418  
H268     H      0.564380000000     0.318760000000     0.950940000000     0.0371239  
H269     H      0.561540000000     0.349010000000     0.084170000000     0.0414117  
H270     H      0.420370000000     0.351240000000     0.940590000000     0.0392362  
H271     H      0.599220000000     0.302760000000     0.989490000000     0.04298    
H272     H      0.456230000000     0.359980000000     0.069710000000     0.0370235  
H273     H      0.456140000000     0.326480000000     0.938840000000     0.0369483  
H274     H      0.410880000000     0.354890000000     0.075290000000     0.0446562  
H275     H      0.526040000000     0.301660000000     0.046840000000     0.0478591  
H276     H      0.609930000000     0.324500000000     0.949720000000     0.0454689  
H277     H      0.493430000000     0.374170000000     0.974460000000     0.0462846  
H278     H      0.574280000000     0.348500000000     0.959650000000     0.038366   
H279     H      0.410810000000     0.321200000000     0.943250000000     0.0471548  
H280     H      0.598150000000     0.326810000000     0.088540000000     0.0436261  
H281     H      0.446530000000     0.329860000000     0.065940000000     0.0394226  
H282     H      0.446430000000     0.310240000000     0.989220000000     0.0397106  
H283     H      0.537640000000     0.368710000000     0.981350000000     0.0423444  
H284     H      0.571490000000     0.365990000000     0.035120000000     0.0420801  
H285     H      0.420400000000     0.373790000000     0.028900000000     0.0381663  
H286     H      0.333680000000     0.457920000000     0.024950000000     0.042892   
H287     H      0.335050000000     0.536300000000     0.934820000000     0.0370533  
H288     H      0.286770000000     0.536680000000     0.048450000000     0.0415827  
H289     H      0.296800000000     0.399790000000     0.911930000000     0.0379397  
H290     H      0.349450000000     0.568790000000     0.977410000000     0.0442479  
H291     H      0.276770000000     0.433570000000     0.033590000000     0.0376238  
H292     H      0.322370000000     0.434600000000     0.915070000000     0.036648   
H293     H      0.282080000000     0.390170000000     0.041010000000     0.0476694  
H294     H      0.339590000000     0.500220000000     0.034320000000     0.0485058  
H295     H      0.331910000000     0.580780000000     0.930800000000     0.0431507  
H296     H      0.272570000000     0.471020000000     0.934110000000     0.0465178  
H297     H      0.304700000000     0.547970000000     0.928930000000     0.0381477  
H298     H      0.328050000000     0.391250000000     0.920570000000     0.0452105  
H299     H      0.309470000000     0.570490000000     0.065410000000     0.0441846  
H300     H      0.308220000000     0.424970000000     0.040840000000     0.0404738  
H301     H      0.335600000000     0.425570000000     0.969610000000     0.0397314  
H302     H      0.278700000000     0.513340000000     0.942960000000     0.0427273  
H303     H      0.277130000000     0.546820000000     0.992300000000     0.0421037  
H304     H      0.267940000000     0.399030000000     0.987460000000     0.0387131  
In1      In     0.335250000000     0.326220000000     0.020280000000     2.40627    
In2      In     0.334020000000     0.652090000000     0.018890000000     2.41171    
In3      In     0.686520000000     0.327880000000     0.027190000000     2.41935    
In4      In     0.686980000000     0.661080000000     0.014620000000     2.40425    
In5      In     0.841250000000     0.160620000000     0.524820000000     2.41093    
In6      In     0.842890000000     0.822450000000     0.510300000000     2.40942    
In7      In     0.184990000000     0.825520000000     0.516350000000     2.41439    
In8      In     0.188580000000     0.160420000000     0.515920000000     2.41595    
N1       N      0.199630000000     0.895430000000     0.511780000000    -0.167008   
N2       N      0.199760000000     0.944680000000     0.514480000000    -0.111804   
N3       N      0.213740000000     0.043290000000     0.496950000000    -0.112971   
N4       N      0.207760000000     0.092240000000     0.500020000000    -0.167202   
N5       N      0.253490000000     0.882750000000     0.582360000000    -0.100029   
N6       N      0.909750000000     0.793910000000     0.536920000000    -0.16886    
N7       N      0.961340000000     0.791260000000     0.536410000000    -0.113215   
N8       N      0.060140000000     0.816690000000     0.501710000000    -0.112875   
N9       N      0.111170000000     0.821860000000     0.504230000000    -0.16813    
N10      N      0.896310000000     0.760970000000     0.428760000000    -0.0980304  
N11      N      0.848090000000     0.089570000000     0.518650000000    -0.167859   
N12      N      0.845970000000     0.040190000000     0.513690000000    -0.112012   
N13      N      0.861260000000     0.941440000000     0.522130000000    -0.113038   
N14      N      0.856310000000     0.892390000000     0.518800000000    -0.16813    
N15      N      0.894110000000     0.101190000000     0.429750000000    -0.104114   
N16      N      0.114220000000     0.157990000000     0.518360000000    -0.167915   
N17      N      0.062460000000     0.159180000000     0.518310000000    -0.112502   
N18      N      0.962600000000     0.181260000000     0.551480000000    -0.113123   
N19      N      0.911290000000     0.179790000000     0.551370000000    -0.167103   
N20      N      0.124460000000     0.134930000000     0.636710000000    -0.0948026  
N21      N      0.798600000000     0.789460000000     0.602740000000    -0.167416   
N22      N      0.777030000000     0.767980000000     0.680160000000    -0.111782   
N23      N      0.722510000000     0.716930000000     0.814640000000    -0.112851   
N24      N      0.706180000000     0.693630000000     0.894820000000    -0.166435   
N25      N      0.752840000000     0.833950000000     0.575840000000    -0.101582   
N26      N      0.719560000000     0.702320000000     0.111980000000    -0.169028   
N27      N      0.740810000000     0.726910000000     0.186800000000    -0.112002   
N28      N      0.784210000000     0.792740000000     0.310410000000    -0.113239   
N29      N      0.808540000000     0.812790000000     0.386660000000    -0.1674     
N30      N      0.769450000000     0.706220000000     0.028080000000    -0.104091   
N31      N      0.800820000000     0.194110000000     0.622900000000    -0.168703   
N32      N      0.774170000000     0.219640000000     0.690090000000    -0.112582   
N33      N      0.741610000000     0.263770000000     0.855690000000    -0.112841   
N34      N      0.718320000000     0.290260000000     0.924530000000    -0.167696   
N35      N      0.784830000000     0.134090000000     0.659200000000    -0.0992138  
N36      N      0.712650000000     0.290650000000     0.137550000000    -0.167539   
N37      N      0.733390000000     0.265970000000     0.213530000000    -0.112247   
N38      N      0.782880000000     0.200230000000     0.329660000000    -0.113097   
N39      N      0.807740000000     0.178850000000     0.404080000000    -0.167265   
N40      N      0.656140000000     0.256450000000     0.122790000000    -0.101076   
N41      N      0.704170000000     0.397140000000     0.028300000000    -0.16707    
N42      N      0.704320000000     0.446270000000     0.032530000000    -0.111447   
N43      N      0.718680000000     0.545000000000     0.020880000000    -0.113102   
N44      N      0.710940000000     0.593720000000     0.016450000000    -0.167639   
N45      N      0.749380000000     0.383330000000     0.117360000000    -0.101255   
N46      N      0.210170000000     0.794580000000     0.634980000000    -0.167941   
N47      N      0.230530000000     0.771840000000     0.713870000000    -0.112449   
N48      N      0.274240000000     0.705520000000     0.837020000000    -0.112929   
N49      N      0.298400000000     0.682500000000     0.910380000000    -0.167785   
N50      N      0.147850000000     0.770150000000     0.639800000000    -0.102167   
N51      N      0.220140000000     0.792020000000     0.411410000000    -0.167886   
N52      N      0.239980000000     0.767530000000     0.335250000000    -0.112164   
N53      N      0.298150000000     0.715020000000     0.209370000000    -0.112985   
N54      N      0.315710000000     0.689080000000     0.133760000000    -0.167796   
N55      N      0.258330000000     0.844850000000     0.408010000000    -0.100441   
N56      N      0.408110000000     0.650530000000     0.032230000000    -0.167976   
N57      N      0.459440000000     0.653890000000     0.041780000000    -0.112505   
N58      N      0.562580000000     0.645590000000     0.023130000000    -0.113076   
N59      N      0.613380000000     0.652170000000     0.020620000000    -0.16906    
N60      N      0.397610000000     0.595600000000     0.095770000000    -0.10244    
N61      N      0.214940000000     0.188900000000     0.635320000000    -0.166988   
N62      N      0.236190000000     0.214240000000     0.708850000000    -0.111734   
N63      N      0.277380000000     0.248420000000     0.877230000000    -0.113198   
N64      N      0.300570000000     0.276440000000     0.944240000000    -0.168599   
N65      N      0.152590000000     0.182890000000     0.679080000000    -0.0953322  
N66      N      0.219340000000     0.201220000000     0.415320000000    -0.168994   
N67      N      0.241850000000     0.227260000000     0.343340000000    -0.112536   
N68      N      0.308180000000     0.277540000000     0.228150000000    -0.11343    
N69      N      0.328950000000     0.300060000000     0.150890000000    -0.168297   
N70      N      0.208490000000     0.248810000000     0.498510000000    -0.102267   
N71      N      0.612470000000     0.333410000000     0.021770000000    -0.167658   
N72      N      0.561030000000     0.330900000000     0.020170000000    -0.111834   
N73      N      0.458480000000     0.345250000000     0.002230000000    -0.113204   
N74      N      0.407390000000     0.340940000000     0.006360000000    -0.168353   
N75      N      0.620850000000     0.380330000000     0.106580000000    -0.102898   
N76      N      0.315920000000     0.583700000000     0.998020000000    -0.167033   
N77      N      0.313780000000     0.534640000000     0.996220000000    -0.111165   
N78      N      0.298320000000     0.436600000000     0.972640000000    -0.113339   
N79      N      0.304370000000     0.387770000000     0.979770000000    -0.168344   
N80      N      0.256210000000     0.597120000000     0.046340000000    -0.101447   
O1       O      0.325350000000     0.329640000000     0.096730000000    -0.493624   
O2       O      0.339550000000     0.297070000000     0.073970000000    -0.509861   
O3       O      0.335080000000     0.294430000000     0.972710000000    -0.495143   
O4       O      0.330710000000     0.356790000000     0.969810000000    -0.509591   
O5       O      0.371120000000     0.341770000000     0.046450000000    -0.509106   
O6       O      0.308550000000     0.356510000000     0.029950000000    -0.493338   
O7       O      0.300870000000     0.308870000000     0.991520000000    -0.510271   
O8       O      0.371240000000     0.324770000000     0.981130000000    -0.493726   
O9       O      0.299210000000     0.663650000000     0.981220000000    -0.505734   
O10      O      0.333200000000     0.671720000000     0.950000000000    -0.494781   
O11      O      0.318060000000     0.655080000000     0.091370000000    -0.49235    
O12      O      0.313130000000     0.618820000000     0.037260000000    -0.486641   
O13      O      0.372410000000     0.662290000000     0.996290000000    -0.493905   
O14      O      0.336790000000     0.617580000000     0.979380000000    -0.507904   
O15      O      0.331080000000     0.686260000000     0.059700000000    -0.509462   
O16      O      0.369050000000     0.640460000000     0.055390000000    -0.501326   
O17      O      0.717110000000     0.316060000000     0.075660000000    -0.50127    
O18      O      0.681570000000     0.303220000000     0.088790000000    -0.493809   
O19      O      0.689770000000     0.295240000000     0.982110000000    -0.500948   
O20      O      0.649840000000     0.324050000000     0.989970000000    -0.501244   
O21      O      0.700490000000     0.360770000000     0.063140000000    -0.493722   
O22      O      0.649740000000     0.336620000000     0.058990000000    -0.496399   
O23      O      0.713650000000     0.323680000000     0.968100000000    -0.501159   
O24      O      0.690670000000     0.363520000000     0.992130000000    -0.503004   
O25      O      0.720400000000     0.676330000000     0.050700000000    -0.501628   
O26      O      0.685730000000     0.686200000000     0.076180000000    -0.50733    
O27      O      0.686790000000     0.692590000000     0.965570000000    -0.495626   
O28      O      0.693360000000     0.625700000000     0.980800000000    -0.496767   
O29      O      0.652240000000     0.648200000000     0.050550000000    -0.504423   
O30      O      0.703960000000     0.629390000000     0.051280000000    -0.498877   
O31      O      0.707060000000     0.662520000000     0.945820000000    -0.490762   
O32      O      0.648370000000     0.666290000000     0.986660000000    -0.504288   
O33      O      0.807790000000     0.162790000000     0.477510000000    -0.505344   
O34      O      0.841150000000     0.176780000000     0.452530000000    -0.490621   
O35      O      0.810450000000     0.161950000000     0.577750000000    -0.49011    
O36      O      0.838630000000     0.123980000000     0.556440000000    -0.492498   
O37      O      0.875570000000     0.181700000000     0.509200000000    -0.488858   
O38      O      0.850380000000     0.126780000000     0.486810000000    -0.503847   
O39      O      0.831630000000     0.192560000000     0.568570000000    -0.512063   
O40      O      0.876360000000     0.158850000000     0.567470000000    -0.50477    
O41      O      0.842790000000     0.813930000000     0.433110000000    -0.490669   
O42      O      0.808830000000     0.821800000000     0.464430000000    -0.504894   
O43      O      0.812380000000     0.822310000000     0.563690000000    -0.48672    
O44      O      0.873790000000     0.796930000000     0.494650000000    -0.48639    
O45      O      0.855680000000     0.857300000000     0.479550000000    -0.508547   
O46      O      0.878040000000     0.819270000000     0.552370000000    -0.510799   
O47      O      0.829180000000     0.789820000000     0.547940000000    -0.506651   
O48      O      0.842590000000     0.857330000000     0.548630000000    -0.493239   
O49      O      0.179240000000     0.807310000000     0.585980000000    -0.498453   
O50      O      0.215580000000     0.813530000000     0.564840000000    -0.499024   
O51      O      0.208210000000     0.825230000000     0.451080000000    -0.4953     
O52      O      0.150120000000     0.811000000000     0.483470000000    -0.502759   
O53      O      0.201280000000     0.858930000000     0.546920000000    -0.494916   
O54      O      0.146480000000     0.835530000000     0.538080000000    -0.503584   
O55      O      0.196160000000     0.792510000000     0.477140000000    -0.49966    
O56      O      0.183540000000     0.861370000000     0.481600000000    -0.499292   
O57      O      0.194800000000     0.195580000000     0.479630000000    -0.49659    
O58      O      0.212020000000     0.165760000000     0.451480000000    -0.506036   
O59      O      0.184000000000     0.180870000000     0.583020000000    -0.494474   
O60      O      0.150950000000     0.170490000000     0.487790000000    -0.50345    
O61      O      0.188630000000     0.126110000000     0.475720000000    -0.501103   
O62      O      0.152550000000     0.147390000000     0.545240000000    -0.497814   
O63      O      0.219320000000     0.168220000000     0.567200000000    -0.498463   
O64      O      0.207060000000     0.126880000000     0.540680000000    -0.496311   


