data_structure

_audit_creation_method RASPA-1.0
_audit_creation_date 2023-5-25
_audit_author_name 'Poobodin Mano'

_cell_length_a    47.1254
_cell_length_b    43.5123
_cell_length_c    42.1373
_cell_angle_alpha 90
_cell_angle_beta  90
_cell_angle_gamma 90
_cell_volume      86404

_symmetry_cell_setting          triclinic
_symmetry_space_group_name_Hall 'P 1'
_symmetry_space_group_name_H-M  'P 1'
_symmetry_Int_Tables_number     1

_symmetry_equiv_pos_as_xyz 'x,y,z'

loop_
_atom_site_label
_atom_site_type_symbol
_atom_site_fract_x
_atom_site_fract_y
_atom_site_fract_z
_atom_site_charge
C1       C      0.816770000000     0.368670000000     0.931000000000     0.407959   
C2       C      0.822920000000     0.441840000000     0.860890000000     0.408016   
C3       C      0.892500000000     0.430390000000     0.929260000000     0.408789   
C4       C      0.881250000000     0.362150000000     0.853900000000     0.407408   
C5       C      0.068800000000     0.592040000000     0.135220000000     0.405101   
C6       C      0.141360000000     0.600180000000     0.207470000000     0.403925   
C7       C      0.132830000000     0.654450000000     0.116710000000     0.404032   
C8       C      0.080470000000     0.666180000000     0.208630000000     0.406109   
C9       C      0.313980000000     0.853410000000     0.963660000000     0.409739   
C10      C      0.377980000000     0.922810000000     0.954110000000     0.403867   
C11      C      0.371440000000     0.859940000000     0.874280000000     0.407045   
C12      C      0.299600000000     0.918780000000     0.888730000000     0.404911   
C13      C      0.640960000000     0.178740000000     0.112060000000     0.403773   
C14      C      0.576740000000     0.105000000000     0.110890000000     0.403534   
C15      C      0.641430000000     0.110560000000     0.186050000000     0.409031   
C16      C      0.570870000000     0.177610000000     0.184760000000     0.411878   
C17      C      0.327740000000     0.413880000000     0.373590000000     0.405072   
C18      C      0.389810000000     0.349940000000     0.378490000000     0.401427   
C19      C      0.384350000000     0.416640000000     0.462020000000     0.404435   
C20      C      0.323470000000     0.349770000000     0.458610000000     0.401925   
C21      C      0.627820000000     0.613280000000     0.687810000000     0.408169   
C22      C      0.561480000000     0.683510000000     0.700000000000     0.405097   
C23      C      0.625420000000     0.696680000000     0.626040000000     0.410496   
C24      C      0.563030000000     0.621590000000     0.615040000000     0.404808   
C25      C      0.822020000000     0.848870000000     0.437970000000     0.407786   
C26      C      0.813960000000     0.919560000000     0.368510000000     0.411076   
C27      C      0.887810000000     0.923570000000     0.434660000000     0.405276   
C28      C      0.887210000000     0.854430000000     0.361370000000     0.410458   
C29      C      0.055660000000     0.105630000000     0.630810000000     0.404908   
C30      C      0.072310000000     0.168420000000     0.706560000000     0.407059   
C31      C      0.139330000000     0.104930000000     0.690410000000     0.403971   
C32      C      0.126550000000     0.166660000000     0.613310000000     0.405315   
C33      C      0.936190000000     0.949370000000     0.498860000000    -0.0262998  
C34      C      0.004220000000     0.085710000000     0.568480000000    -0.0305378  
C35      C      0.027230000000     0.058280000000     0.626160000000    -0.00495912 
C36      C      0.013610000000     0.106390000000     0.595920000000    -0.00577723 
C37      C      0.996450000000     0.027590000000     0.529350000000    -0.0542875  
C38      C      0.940220000000     0.008840000000     0.538200000000    -0.0564152  
C39      C      0.981550000000     0.037050000000     0.556630000000     0.0625152  
C40      C      0.017530000000     0.039510000000     0.597460000000    -0.0309094  
C41      C      0.955020000000     0.999690000000     0.510740000000     0.0655742  
C42      C      0.916760000000     0.994280000000     0.472620000000    -0.00471097 
C43      C      0.983170000000     0.009180000000     0.506600000000    -0.0515918  
C44      C      0.907010000000     0.975460000000     0.443710000000    -0.05485    
C45      C      0.928200000000     0.928260000000     0.471270000000    -0.0039797  
C46      C      0.953430000000     0.027460000000     0.560840000000    -0.0517372  
C47      C      0.926230000000     0.981140000000     0.415630000000     0.314104   
C48      C      0.659890000000     0.733700000000     0.558080000000    -0.0265652  
C49      C      0.788160000000     0.818430000000     0.510300000000    -0.0311306  
C50      C      0.785020000000     0.809090000000     0.441840000000    -0.00335002 
C51      C      0.814530000000     0.823860000000     0.489840000000    -0.00441372 
C52      C      0.726420000000     0.805840000000     0.527070000000    -0.054393   
C53      C      0.723090000000     0.743670000000     0.543570000000    -0.0559238  
C54      C      0.747200000000     0.785160000000     0.516030000000     0.0630197  
C55      C      0.759840000000     0.804610000000     0.464210000000    -0.031434   
C56      C      0.702490000000     0.764390000000     0.554920000000     0.0656168  
C57      C      0.689280000000     0.741120000000     0.604980000000    -0.00459318 
C58      C      0.704350000000     0.795460000000     0.546460000000    -0.0508537  
C59      C      0.664150000000     0.734820000000     0.627380000000    -0.0534682  
C60      C      0.633360000000     0.728150000000     0.578170000000    -0.004353   
C61      C      0.745260000000     0.754090000000     0.524380000000    -0.0515692  
C62      C      0.652750000000     0.764240000000     0.641510000000     0.311997   
C63      C      0.189360000000     0.189400000000     0.568520000000    -0.0264345  
C64      C      0.257910000000     0.324990000000     0.498500000000    -0.0307488  
C65      C      0.316130000000     0.303320000000     0.491190000000    -0.00526754 
C66      C      0.281940000000     0.348220000000     0.494150000000    -0.00504385 
C67      C      0.227950000000     0.262960000000     0.501610000000    -0.0544008  
C68      C      0.220300000000     0.251320000000     0.566340000000    -0.0562464  
C69      C      0.246120000000     0.276830000000     0.523960000000     0.0623774  
C70      C      0.290670000000     0.281880000000     0.495670000000    -0.0307667  
C71      C      0.201920000000     0.237730000000     0.544030000000     0.065576   
C72      C      0.157980000000     0.233650000000     0.573620000000    -0.00428689 
C73      C      0.206010000000     0.243640000000     0.511680000000    -0.0515285  
C74      C      0.132050000000     0.212960000000     0.579880000000    -0.0542951  
C75      C      0.164800000000     0.166940000000     0.573300000000    -0.00492477 
C76      C      0.242140000000     0.270740000000     0.556290000000    -0.0514581  
C77      C      0.113420000000     0.210360000000     0.550830000000     0.311616   
C78      C      0.498810000000     0.591820000000     0.576200000000    -0.0262258  
C79      C      0.445420000000     0.448720000000     0.504320000000    -0.0309222  
C80      C      0.385290000000     0.462520000000     0.496440000000    -0.00507165 
C81      C      0.424140000000     0.422520000000     0.499700000000    -0.00511765 
C82      C      0.467320000000     0.515050000000     0.506800000000    -0.0544656  
C83      C      0.474770000000     0.526870000000     0.571530000000    -0.0563134  
C84      C      0.451550000000     0.498320000000     0.529340000000     0.0624466  
C85      C      0.407990000000     0.487230000000     0.501070000000    -0.0307868  
C86      C      0.490560000000     0.543590000000     0.548990000000     0.0653243  
C87      C      0.535310000000     0.552260000000     0.575440000000    -0.0041259  
C88      C      0.486630000000     0.537480000000     0.516650000000    -0.0514291  
C89      C      0.559060000000     0.575960000000     0.580660000000    -0.0545933  
C90      C      0.520770000000     0.617360000000     0.580720000000    -0.00472595 
C91      C      0.455420000000     0.504490000000     0.561670000000    -0.0519567  
C92      C      0.574930000000     0.582430000000     0.550240000000     0.312849   
C93      C      0.780200000000     0.960520000000     0.301490000000    -0.026569   
C94      C      0.669620000000     0.071230000000     0.257570000000    -0.0305493  
C95      C      0.684910000000     0.079760000000     0.191020000000    -0.00399392 
C96      C      0.658840000000     0.099600000000     0.239870000000    -0.00480535 
C97      C      0.698630000000     0.009330000000     0.268390000000    -0.0548216  
C98      C      0.751450000000     0.023130000000     0.295160000000    -0.056195   
C99      C      0.710790000000     0.038520000000     0.263540000000     0.0628914  
C100     C      0.694410000000     0.052330000000     0.211040000000    -0.0309153  
C101     C      0.739380000000     0.993880000000     0.299870000000     0.0656031  
C102     C      0.759150000000     0.978630000000     0.350630000000    -0.00504989 
C103     C      0.712890000000     0.987270000000     0.286460000000    -0.05129    
C104     C      0.770370000000     0.950810000000     0.369380000000    -0.0536552  
C105     C      0.791750000000     0.931520000000     0.317240000000    -0.00338385 
C106     C      0.737180000000     0.045210000000     0.277150000000    -0.0515234  
C107     C      0.746780000000     0.928300000000     0.376380000000     0.313523   
C108     C      0.506690000000     0.201390000000     0.230570000000    -0.0267804  
C109     C      0.452750000000     0.326650000000     0.330900000000    -0.0310351  
C110     C      0.394870000000     0.305660000000     0.342720000000    -0.00473014 
C111     C      0.430450000000     0.349810000000     0.341990000000    -0.00468793 
C112     C      0.459330000000     0.281590000000     0.263140000000    -0.0520756  
C113     C      0.499100000000     0.247000000000     0.297040000000    -0.0515729  
C114     C      0.459480000000     0.282840000000     0.296360000000     0.0623309  
C115     C      0.418960000000     0.284650000000     0.331670000000    -0.0309816  
C116     C      0.499070000000     0.245910000000     0.263820000000     0.065006   
C117     C      0.538750000000     0.244690000000     0.227210000000    -0.00551885 
C118     C      0.478890000000     0.263260000000     0.246900000000    -0.0563923  
C119     C      0.563670000000     0.224530000000     0.216230000000    -0.0542259  
C120     C      0.529580000000     0.178600000000     0.220190000000    -0.00317231 
C121     C      0.479470000000     0.265230000000     0.313280000000    -0.0545842  
C122     C      0.584880000000     0.220470000000     0.242780000000     0.315795   
C123     C      0.176570000000     0.037040000000     0.721230000000    -0.0261967  
C124     C      0.260330000000     0.985240000000     0.858130000000    -0.0306419  
C125     C      0.263010000000     0.919180000000     0.846820000000    -0.00483626 
C126     C      0.267540000000     0.963480000000     0.885470000000    -0.00491371 
C127     C      0.201470000000     0.996050000000     0.810890000000    -0.0519599  
C128     C      0.236910000000     0.025580000000     0.767250000000    -0.0510287  
C129     C      0.230720000000     0.990410000000     0.811620000000     0.0629017  
C130     C      0.255880000000     0.942650000000     0.820990000000    -0.0310244  
C131     C      0.207650000000     0.031150000000     0.766470000000     0.0651423  
C132     C      0.184020000000     0.079770000000     0.757540000000    -0.00447703 
C133     C      0.189950000000     0.016260000000     0.788590000000    -0.056244   
C134     C      0.176270000000     0.103550000000     0.731890000000    -0.0546991  
C135     C      0.169330000000     0.058640000000     0.693810000000    -0.00485992 
C136     C      0.248460000000     0.005430000000     0.789630000000    -0.0548184  
C137     C      0.202440000000     0.119140000000     0.718880000000     0.312787   
C138     C      0.402130000000     0.794720000000     0.830950000000    -0.0263179  
C139     C      0.529410000000     0.748800000000     0.742520000000    -0.030228   
C140     C      0.521210000000     0.682520000000     0.737400000000    -0.00471174 
C141     C      0.554790000000     0.728060000000     0.735300000000    -0.00610557 
C142     C      0.467450000000     0.767160000000     0.753450000000    -0.0546051  
C143     C      0.463530000000     0.775730000000     0.819110000000    -0.0562484  
C144     C      0.486520000000     0.751870000000     0.773780000000     0.0625231  
C145     C      0.497220000000     0.705180000000     0.744690000000    -0.0309783  
C146     C      0.444440000000     0.791020000000     0.798800000000     0.065171   
C147     C      0.434400000000     0.838220000000     0.827150000000    -0.00440962 
C148     C      0.446610000000     0.786550000000     0.765970000000    -0.0514498  
C149     C      0.410730000000     0.861240000000     0.835530000000    -0.0547482  
C150     C      0.376920000000     0.815580000000     0.838430000000    -0.00465498 
C151     C      0.484350000000     0.756340000000     0.806600000000    -0.0519213  
C152     C      0.400490000000     0.878190000000     0.806430000000     0.312479   
C153     C      0.425050000000     0.987940000000     0.976010000000    -0.0261428  
C154     C      0.537210000000     0.035690000000     0.086790000000    -0.0308086  
C155     C      0.548030000000     0.097420000000     0.062640000000    -0.00543119 
C156     C      0.565080000000     0.051910000000     0.095050000000    -0.00508348 
C157     C      0.476970000000     0.028120000000     0.059950000000    -0.0544282  
C158     C      0.484130000000     0.993450000000     0.004600000000    -0.0556734  
C159     C      0.503370000000     0.028190000000     0.044300000000     0.0627534  
C160     C      0.520910000000     0.079330000000     0.055690000000    -0.0303825  
C161     C      0.457590000000     0.993800000000     0.019960000000     0.0655239  
C162     C      0.437760000000     0.943720000000     0.007980000000    -0.0049706  
C163     C      0.454300000000     0.011080000000     0.047760000000    -0.0515997  
C164     C      0.409780000000     0.927050000000     0.000270000000    -0.0536313  
C165     C      0.396340000000     0.974160000000     0.967000000000    -0.00422105 
C166     C      0.506750000000     0.010590000000     0.016720000000    -0.0518131  
C167     C      0.389880000000     0.927900000000     0.028350000000     0.3142     
C168     C      0.022040000000     0.695510000000     0.256760000000    -0.0258206  
C169     C      0.951050000000     0.834330000000     0.315430000000    -0.0310076  
C170     C      0.897920000000     0.805420000000     0.334730000000    -0.00474791 
C171     C      0.924610000000     0.854140000000     0.320460000000    -0.00464864 
C172     C      0.988280000000     0.776480000000     0.316170000000    -0.0544934  
C173     C      0.989690000000     0.755910000000     0.253290000000    -0.0563085  
C174     C      0.966560000000     0.785100000000     0.295000000000     0.0627109  
C175     C      0.925430000000     0.787650000000     0.329190000000    -0.0309315  
C176     C      0.011130000000     0.746800000000     0.274590000000     0.0656731  
C177     C      0.051630000000     0.738550000000     0.240170000000    -0.00416772 
C178     C      0.010340000000     0.757440000000     0.305940000000    -0.0513898  
C179     C      0.077160000000     0.717280000000     0.233910000000    -0.0543208  
C180     C      0.046330000000     0.672720000000     0.252400000000    -0.00527506 
C181     C      0.967610000000     0.774880000000     0.263530000000    -0.0518489  
C182     C      0.098840000000     0.719410000000     0.260220000000     0.312039   
C183     C      0.288890000000     0.781960000000     0.999790000000    -0.0262804  
C184     C      0.159630000000     0.719310000000     0.072510000000    -0.0310513  
C185     C      0.171960000000     0.653830000000     0.077530000000    -0.00492146 
C186     C      0.135530000000     0.696170000000     0.076980000000    -0.00476544 
C187     C      0.209240000000     0.733510000000     0.014730000000    -0.0519703  
C188     C      0.241360000000     0.764120000000     0.060740000000    -0.0511957  
C189     C      0.204920000000     0.726820000000     0.046880000000     0.0624998  
C190     C      0.195010000000     0.678220000000     0.072850000000    -0.0309643  
C191     C      0.245640000000     0.770850000000     0.028600000000     0.0654431  
C192     C      0.252560000000     0.821350000000     0.006000000000    -0.00429683 
C193     C      0.229360000000     0.755370000000     0.005560000000    -0.0562888  
C194     C      0.274320000000     0.847360000000     0.001410000000    -0.0537089  
C195     C      0.312240000000     0.806060000000     0.995870000000    -0.00520888 
C196     C      0.221160000000     0.742350000000     0.069920000000    -0.0543789  
C197     C      0.282170000000     0.862130000000     0.032650000000     0.313623   
C198     C      0.208720000000     0.576000000000     0.244220000000    -0.0257356  
C199     C      0.266100000000     0.442540000000     0.329780000000    -0.0309285  
C200     C      0.326340000000     0.456810000000     0.335370000000    -0.00486518 
C201     C      0.287380000000     0.416800000000     0.336440000000    -0.00481482 
C202     C      0.254570000000     0.492020000000     0.267610000000    -0.0520438  
C203     C      0.224560000000     0.529520000000     0.309810000000    -0.051626   
C204     C      0.259640000000     0.489560000000     0.300250000000     0.062448   
C205     C      0.303620000000     0.481060000000     0.328700000000    -0.0309252  
C206     C      0.219380000000     0.531860000000     0.277180000000     0.0655171  
C207     C      0.173240000000     0.536270000000     0.252820000000    -0.00427416 
C208     C      0.234570000000     0.512910000000     0.256060000000    -0.0565455  
C209     C      0.148710000000     0.558650000000     0.246290000000    -0.0544325  
C210     C      0.186040000000     0.600380000000     0.237900000000    -0.00511459 
C211     C      0.244470000000     0.508530000000     0.321360000000    -0.0544622  
C212     C      0.134380000000     0.568440000000     0.276720000000     0.3126     
C213     C      0.913390000000     0.290000000000     0.826640000000    -0.0262059  
C214     C      0.040560000000     0.236240000000     0.742020000000    -0.0310024  
C215     C      0.038000000000     0.169860000000     0.750940000000    -0.00510688 
C216     C      0.067140000000     0.216600000000     0.737120000000    -0.00494205 
C217     C      0.997060000000     0.252760000000     0.805420000000    -0.0519965  
C218     C      0.955330000000     0.269610000000     0.761540000000    -0.0513578  
C219     C      0.998470000000     0.241450000000     0.774350000000     0.0624816  
C220     C      0.012360000000     0.191000000000     0.755460000000    -0.0309551  
C221     C      0.953970000000     0.280980000000     0.792600000000     0.0653056  
C222     C      0.942050000000     0.332900000000     0.808020000000    -0.00458944 
C223     C      0.975070000000     0.272410000000     0.814560000000    -0.0563075  
C224     C      0.917310000000     0.355650000000     0.812000000000    -0.0536425  
C225     C      0.887250000000     0.310470000000     0.830700000000    -0.00492709 
C226     C      0.977380000000     0.250040000000     0.752380000000    -0.0544018  
C227     C      0.903980000000     0.363510000000     0.780430000000     0.312209   
C228     C      0.699240000000     0.232110000000     0.089320000000    -0.0263952  
C229     C      0.756900000000     0.317890000000     0.953690000000    -0.0310635  
C230     C      0.802690000000     0.351810000000     0.984470000000    -0.00458239 
C231     C      0.769150000000     0.346390000000     0.937460000000    -0.00423516 
C232     C      0.750530000000     0.266240000000     0.002250000000    -0.054312   
C233     C      0.705130000000     0.284130000000     0.040870000000    -0.0562972  
C234     C      0.743520000000     0.297600000000     0.004980000000     0.0623789  
C235     C      0.788880000000     0.323040000000     0.998510000000    -0.0311156  
C236     C      0.712090000000     0.252770000000     0.038060000000     0.0652486  
C237     C      0.666560000000     0.227780000000     0.045180000000    -0.0049548  
C238     C      0.734860000000     0.244090000000     0.018670000000    -0.0517559  
C239     C      0.652460000000     0.198850000000     0.059020000000    -0.054677   
C240     C      0.687480000000     0.203320000000     0.105400000000    -0.00377375 
C241     C      0.720770000000     0.306270000000     0.024400000000    -0.051795   
C242     C      0.661590000000     0.170560000000     0.040930000000     0.313973   
C243     C      0.664060000000     0.574240000000     0.754200000000    -0.0266786  
C244     C      0.788160000000     0.478530000000     0.792320000000    -0.0300006  
C245     C      0.788330000000     0.484270000000     0.861290000000    -0.00435256 
C246     C      0.814900000000     0.470160000000     0.811000000000    -0.00625498 
C247     C      0.726790000000     0.496190000000     0.779580000000    -0.0545579  
C248     C      0.726900000000     0.559130000000     0.766020000000    -0.0559005  
C249     C      0.749180000000     0.514800000000     0.790590000000     0.063135   
C250     C      0.762620000000     0.491780000000     0.840590000000    -0.0307019  
C251     C      0.704720000000     0.540460000000     0.754600000000     0.0654947  
C252     C      0.691680000000     0.566780000000     0.706110000000    -0.00512051 
C253     C      0.704840000000     0.509000000000     0.761610000000    -0.0512486  
C254     C      0.666390000000     0.575220000000     0.684760000000    -0.0526945  
C255     C      0.637280000000     0.582110000000     0.735410000000    -0.00406072 
C256     C      0.748940000000     0.546290000000     0.783760000000    -0.0516     
C257     C      0.653620000000     0.546940000000     0.669640000000     0.311657   
C258     C      0.950430000000     0.443950000000     0.987220000000    -0.0263913  
C259     C      0.009660000000     0.570090000000     0.082530000000    -0.030888   
C260     C      0.055400000000     0.540110000000     0.117410000000    -0.00522413 
C261     C      0.020940000000     0.584780000000     0.112990000000    -0.00489647 
C262     C      0.006650000000     0.524270000000     0.026960000000    -0.054628   
C263     C      0.958940000000     0.488760000000     0.041660000000    -0.0563457  
C264     C      0.997970000000     0.521210000000     0.058790000000     0.0624304  
C265     C      0.042550000000     0.527260000000     0.086850000000    -0.0307599  
C266     C      0.967770000000     0.491590000000     0.009860000000     0.065249   
C267     C      0.924120000000     0.491350000000     0.979860000000    -0.0050617  
C268     C      0.991660000000     0.509450000000     0.002790000000    -0.0516708  
C269     C      0.910600000000     0.479890000000     0.948860000000    -0.0542798  
C270     C      0.938650000000     0.430040000000     0.956600000000    -0.00398147 
C271     C      0.974050000000     0.503380000000     0.065850000000    -0.0519773  
C272     C      0.924310000000     0.494910000000     0.920410000000     0.313658   
H1       H      0.941790000000     0.034340000000     0.581830000000     0.047179   
H2       H      0.955310000000     0.939680000000     0.510730000000     0.0382203  
H3       H      0.921240000000     0.018370000000     0.465150000000     0.0390424  
H4       H      0.009810000000     0.058590000000     0.643970000000     0.0400134  
H5       H      0.947440000000     0.923850000000     0.456710000000     0.052496   
H6       H      0.986610000000     0.097340000000     0.555600000000     0.0396185  
H7       H      0.009860000000     0.016780000000     0.606030000000     0.0375295  
H8       H      0.022840000000     0.127860000000     0.585990000000     0.0503963  
H9       H      0.885370000000     0.983820000000     0.437460000000     0.069831   
H10      H      0.918550000000     0.001560000000     0.542140000000     0.0435787  
H11      H      0.921150000000     0.905800000000     0.481110000000     0.0466356  
H12      H      0.018310000000     0.034370000000     0.525690000000     0.0441388  
H13      H      0.918550000000     0.949760000000     0.516470000000     0.0387911  
H14      H      0.045790000000     0.046640000000     0.637160000000     0.0472443  
H15      H      0.022310000000     0.082810000000     0.551740000000     0.0415416  
H16      H      0.035950000000     0.035550000000     0.581400000000     0.0406199  
H17      H      0.994870000000     0.002120000000     0.485710000000     0.0538662  
H18      H      0.899080000000     0.995140000000     0.490140000000     0.0342301  
H19      H      0.994570000000     0.112850000000     0.610000000000     0.0403957  
H20      H      0.966870000000     0.978070000000     0.399860000000     0.18152    
H21      H      0.760940000000     0.737890000000     0.515830000000     0.0480301  
H22      H      0.653200000000     0.744100000000     0.535120000000     0.0399188  
H23      H      0.704540000000     0.756950000000     0.616840000000     0.0392447  
H24      H      0.794690000000     0.786270000000     0.436900000000     0.040861   
H25      H      0.621030000000     0.749890000000     0.579540000000     0.0526692  
H26      H      0.795170000000     0.810740000000     0.534250000000     0.0384983  
H27      H      0.745660000000     0.786740000000     0.453900000000     0.0392846  
H28      H      0.826690000000     0.843500000000     0.499860000000     0.0469737  
H29      H      0.672650000000     0.720540000000     0.647170000000     0.0699159  
H30      H      0.722020000000     0.719500000000     0.549510000000     0.0448647  
H31      H      0.619850000000     0.710820000000     0.565990000000     0.0486845  
H32      H      0.727230000000     0.829900000000     0.520630000000     0.0458007  
H33      H      0.670300000000     0.711270000000     0.552960000000     0.0414354  
H34      H      0.777070000000     0.818500000000     0.418970000000     0.0500762  
H35      H      0.776500000000     0.840530000000     0.513010000000     0.0420255  
H36      H      0.747650000000     0.826480000000     0.465930000000     0.0449272  
H37      H      0.688570000000     0.811610000000     0.554870000000     0.0547858  
H38      H      0.700580000000     0.719030000000     0.600620000000     0.0351598  
H39      H      0.828280000000     0.803130000000     0.491190000000     0.0399641  
H40      H      0.639830000000     0.807690000000     0.631380000000     0.181478   
H41      H      0.256000000000     0.281170000000     0.573730000000     0.0476175  
H42      H      0.205500000000     0.178200000000     0.553070000000     0.0392857  
H43      H      0.150870000000     0.255320000000     0.561980000000     0.0395961  
H44      H      0.326790000000     0.306440000000     0.514520000000     0.0391624  
H45      H      0.157250000000     0.159080000000     0.549660000000     0.0517634  
H46      H      0.240930000000     0.335940000000     0.512980000000     0.0382384  
H47      H      0.298070000000     0.260760000000     0.508060000000     0.0378698  
H48      H      0.273900000000     0.367910000000     0.479920000000     0.0471615  
H49      H      0.119450000000     0.224470000000     0.598830000000     0.0710427  
H50      H      0.217730000000     0.247010000000     0.591470000000     0.0450479  
H51      H      0.172840000000     0.146430000000     0.586210000000     0.0483982  
H52      H      0.230640000000     0.267180000000     0.476480000000     0.0438222  
H53      H      0.199370000000     0.194360000000     0.591910000000     0.0414979  
H54      H      0.331550000000     0.292180000000     0.474860000000     0.0468662  
H55      H      0.248860000000     0.319170000000     0.474830000000     0.0408881  
H56      H      0.282280000000     0.275080000000     0.471980000000     0.0405639  
H57      H      0.192110000000     0.233270000000     0.494250000000     0.0541204  
H58      H      0.167550000000     0.240010000000     0.596880000000     0.0355287  
H59      H      0.288120000000     0.357200000000     0.517870000000     0.0386143  
H60      H      0.113370000000     0.203130000000     0.503190000000     0.18127    
H61      H      0.443470000000     0.491770000000     0.579260000000     0.046842   
H62      H      0.480380000000     0.601480000000     0.563030000000     0.0384964  
H63      H      0.543910000000     0.532340000000     0.561890000000     0.0402242  
H64      H      0.375220000000     0.457700000000     0.519780000000     0.0384461  
H65      H      0.525130000000     0.628150000000     0.557310000000     0.0531656  
H66      H      0.463300000000     0.440080000000     0.519100000000     0.0383289  
H67      H      0.398140000000     0.507170000000     0.513420000000     0.0375469  
H68      H      0.434440000000     0.403900000000     0.485770000000     0.0466411  
H69      H      0.574240000000     0.565300000000     0.597690000000     0.0753713  
H70      H      0.477540000000     0.530970000000     0.596660000000     0.0433292  
H71      H      0.511530000000     0.635360000000     0.596350000000     0.0465418  
H72      H      0.464780000000     0.510680000000     0.481680000000     0.0439776  
H73      H      0.491250000000     0.584030000000     0.599920000000     0.0383348  
H74      H      0.368600000000     0.471630000000     0.480340000000     0.0470765  
H75      H      0.454060000000     0.455630000000     0.480770000000     0.0411618  
H76      H      0.415600000000     0.495080000000     0.477400000000     0.0408158  
H77      H      0.498750000000     0.550030000000     0.499080000000     0.0545032  
H78      H      0.528240000000     0.543490000000     0.598990000000     0.0347118  
H79      H      0.418540000000     0.413010000000     0.523380000000     0.0386089  
H80      H      0.570430000000     0.593850000000     0.503750000000     0.181761   
H81      H      0.746800000000     0.067540000000     0.273530000000     0.0483437  
H82      H      0.776010000000     0.955300000000     0.276050000000     0.0388914  
H83      H      0.739250000000     0.987170000000     0.361870000000     0.039153   
H84      H      0.702690000000     0.096510000000     0.189600000000     0.0421048  
H85      H      0.777390000000     0.911990000000     0.311620000000     0.052206   
H86      H      0.671900000000     0.077220000000     0.283130000000     0.0389658  
H87      H      0.715230000000     0.044170000000     0.201820000000     0.0381844  
H88      H      0.636900000000     0.104740000000     0.248020000000     0.0482407  
H89      H      0.778430000000     0.959850000000     0.392430000000     0.0699422  
H90      H      0.771970000000     0.028770000000     0.305120000000     0.0448239  
H91      H      0.812800000000     0.926180000000     0.306670000000     0.0476345  
H92      H      0.678310000000     0.003570000000     0.258040000000     0.043869   
H93      H      0.796570000000     0.978960000000     0.302640000000     0.0408159  
H94      H      0.680420000000     0.071640000000     0.166500000000     0.047684   
H95      H      0.653630000000     0.052480000000     0.255520000000     0.0403781  
H96      H      0.678750000000     0.033330000000     0.208380000000     0.0404716  
H97      H      0.703410000000     0.964820000000     0.289800000000     0.0537986  
H98      H      0.775070000000     0.997500000000     0.352100000000     0.0358381  
H99      H      0.672390000000     0.119560000000     0.246320000000     0.0431666  
H100     H      0.716050000000     0.901860000000     0.356420000000     0.180633   
H101     H      0.479950000000     0.265660000000     0.338950000000     0.0437585  
H102     H      0.491320000000     0.189030000000     0.246060000000     0.0381673  
H103     H      0.547090000000     0.265240000000     0.239960000000     0.0387591  
H104     H      0.381360000000     0.311480000000     0.321930000000     0.0390773  
H105     H      0.537260000000     0.165880000000     0.241400000000     0.0539435  
H106     H      0.468680000000     0.339030000000     0.316170000000     0.0381076  
H107     H      0.409610000000     0.265570000000     0.317510000000     0.0374319  
H108     H      0.440650000000     0.366260000000     0.358660000000     0.0464444  
H109     H      0.574360000000     0.237040000000     0.196470000000     0.0672679  
H110     H      0.514450000000     0.233690000000     0.310350000000     0.053571   
H111     H      0.519790000000     0.161440000000     0.203970000000     0.0437188  
H112     H      0.444020000000     0.294940000000     0.249830000000     0.046658   
H113     H      0.495010000000     0.209830000000     0.209300000000     0.0374459  
H114     H      0.381420000000     0.292820000000     0.359900000000     0.0461732  
H115     H      0.463850000000     0.316980000000     0.352000000000     0.0402754  
H116     H      0.429680000000     0.274480000000     0.352760000000     0.0400298  
H117     H      0.478320000000     0.262680000000     0.221240000000     0.0429077  
H118     H      0.527120000000     0.253180000000     0.205930000000     0.0331993  
H119     H      0.422980000000     0.363180000000     0.321100000000     0.0389461  
H120     H      0.590940000000     0.201620000000     0.286360000000     0.181657   
H121     H      0.271140000000     0.001610000000     0.789800000000     0.0452164  
H122     H      0.186280000000     0.015830000000     0.711200000000     0.0387006  
H123     H      0.199190000000     0.090280000000     0.774670000000     0.0387077  
H124     H      0.242870000000     0.909320000000     0.856050000000     0.0396615  
H125     H      0.188520000000     0.061610000000     0.678770000000     0.0530158  
H126     H      0.249370000000     0.005750000000     0.868110000000     0.0388468  
H127     H      0.241570000000     0.931520000000     0.803390000000     0.0381959  
H128     H      0.283050000000     0.974990000000     0.901410000000     0.0506937  
H129     H      0.163060000000     0.121370000000     0.743830000000     0.0682557  
H130     H      0.250790000000     0.036960000000     0.750460000000     0.0546148  
H131     H      0.152760000000     0.047600000000     0.678880000000     0.048193   
H132     H      0.187600000000     0.984750000000     0.827740000000     0.0471479  
H133     H      0.156640000000     0.030470000000     0.733690000000     0.0385897  
H134     H      0.275440000000     0.900120000000     0.836040000000     0.0475404  
H135     H      0.280350000000     0.993060000000     0.846630000000     0.0423658  
H136     H      0.275780000000     0.949460000000     0.808580000000     0.0422237  
H137     H      0.167280000000     0.020270000000     0.788600000000     0.0430951  
H138     H      0.164450000000     0.073720000000     0.770990000000     0.0334769  
H139     H      0.247910000000     0.959110000000     0.899410000000     0.0421486  
H140     H      0.241670000000     0.111840000000     0.700360000000     0.180819   
H141     H      0.498920000000     0.744790000000     0.822500000000     0.0472719  
H142     H      0.394060000000     0.773970000000     0.818390000000     0.0382395  
H143     H      0.450460000000     0.849770000000     0.811830000000     0.0389335  
H144     H      0.528520000000     0.672090000000     0.760060000000     0.0406647  
H145     H      0.364690000000     0.819510000000     0.816250000000     0.0525192  
H146     H      0.537200000000     0.769340000000     0.755650000000     0.0396946  
H147     H      0.481070000000     0.693220000000     0.759490000000     0.0374117  
H148     H      0.569290000000     0.740380000000     0.718810000000     0.052766   
H149     H      0.420330000000     0.878390000000     0.851980000000     0.0680297  
H150     H      0.462340000000     0.778790000000     0.844560000000     0.0433556  
H151     H      0.362700000000     0.803430000000     0.855340000000     0.0473491  
H152     H      0.468740000000     0.764180000000     0.728000000000     0.0439175  
H153     H      0.412130000000     0.787180000000     0.853590000000     0.0387444  
H154     H      0.512710000000     0.663720000000     0.722260000000     0.0462291  
H155     H      0.519830000000     0.756730000000     0.719780000000     0.0412819  
H156     H      0.486950000000     0.712270000000     0.722040000000     0.0400063  
H157     H      0.432090000000     0.798170000000     0.750070000000     0.0540371  
H158     H      0.445330000000     0.831230000000     0.849460000000     0.0335983  
H159     H      0.566590000000     0.723850000000     0.757740000000     0.0425812  
H160     H      0.386500000000     0.873000000000     0.761130000000     0.180873   
H161     H      0.526960000000     0.010350000000     0.004490000000     0.0482749  
H162     H      0.423030000000     0.013440000000     0.975860000000     0.0393641  
H163     H      0.445600000000     0.936090000000     0.031660000000     0.038834   
H164     H      0.562600000000     0.095070000000     0.042020000000     0.0457933  
H165     H      0.379600000000     0.985050000000     0.981790000000     0.0547832  
H166     H      0.541160000000     0.010470000000     0.086330000000     0.0382783  
H167     H      0.512700000000     0.086590000000     0.032070000000     0.0389501  
H168     H      0.571260000000     0.045530000000     0.119660000000     0.0463822  
H169     H      0.415320000000     0.902580000000     0.995480000000     0.0683386  
H170     H      0.487260000000     0.980170000000     0.983170000000     0.0438207  
H171     H      0.391750000000     0.980120000000     0.941850000000     0.0495684  
H172     H      0.473820000000     0.041390000000     0.081380000000     0.0437972  
H173     H      0.441080000000     0.981340000000     0.957820000000     0.0397033  
H174     H      0.542540000000     0.122170000000     0.065010000000     0.0498236  
H175     H      0.521260000000     0.040550000000     0.105640000000     0.040286   
H176     H      0.504640000000     0.085140000000     0.073900000000     0.0400727  
H177     H      0.434040000000     0.011480000000     0.059870000000     0.0544979  
H178     H      0.454070000000     0.936940000000     0.990150000000     0.0340873  
H179     H      0.581930000000     0.043440000000     0.078790000000     0.0419915  
H180     H      0.368360000000     0.956160000000     0.058250000000     0.184896   
H181     H      0.951030000000     0.781320000000     0.247020000000     0.0473381  
H182     H      0.007920000000     0.686790000000     0.275930000000     0.039591   
H183     H      0.059430000000     0.761800000000     0.247020000000     0.039271   
H184     H      0.884490000000     0.803480000000     0.313120000000     0.040388   
H185     H      0.056490000000     0.668600000000     0.275830000000     0.0550952  
H186     H      0.964540000000     0.845460000000     0.297040000000     0.0388618  
H187     H      0.919900000000     0.764050000000     0.321060000000     0.0379477  
H188     H      0.931170000000     0.876600000000     0.330710000000     0.048344   
H189     H      0.087340000000     0.725650000000     0.211660000000     0.0697258  
H190     H      0.989770000000     0.747980000000     0.228950000000     0.0435833  
H191     H      0.037380000000     0.650460000000     0.244180000000     0.0508797  
H192     H      0.987930000000     0.784070000000     0.340620000000     0.0439376  
H193     H      0.009510000000     0.696710000000     0.234380000000     0.0396438  
H194     H      0.886190000000     0.794510000000     0.354670000000     0.0464247  
H195     H      0.963370000000     0.833320000000     0.337960000000     0.0406373  
H196     H      0.937180000000     0.785720000000     0.352030000000     0.0401471  
H197     H      0.026680000000     0.750590000000     0.322570000000     0.0545258  
H198     H      0.039440000000     0.741130000000     0.217670000000     0.034184   
H199     H      0.914700000000     0.858730000000     0.296970000000     0.0418395  
H200     H      0.104240000000     0.719280000000     0.308060000000     0.182243   
H201     H      0.218070000000     0.737830000000     0.094930000000     0.0453794  
H202     H      0.298370000000     0.761080000000     0.010770000000     0.0391861  
H203     H      0.234990000000     0.829650000000     0.021490000000     0.039033   
H204     H      0.166270000000     0.644220000000     0.053920000000     0.0377088  
H205     H      0.323040000000     0.809270000000     0.019080000000     0.0565499  
H206     H      0.151350000000     0.739170000000     0.058670000000     0.0384742  
H207     H      0.212780000000     0.667780000000     0.059200000000     0.0376631  
H208     H      0.118400000000     0.707060000000     0.091220000000     0.0482323  
H209     H      0.263690000000     0.865130000000     0.986530000000     0.0684579  
H210     H      0.253590000000     0.776000000000     0.078710000000     0.0555635  
H211     H      0.328280000000     0.797160000000     0.978830000000     0.0486456  
H212     H      0.196780000000     0.721890000000     0.996770000000     0.0463968  
H213     H      0.280620000000     0.775600000000     0.975920000000     0.038403   
H214     H      0.180640000000     0.634820000000     0.092240000000     0.0466359  
H215     H      0.166580000000     0.727830000000     0.096190000000     0.0434913  
H216     H      0.203230000000     0.685310000000     0.096520000000     0.0420803  
H217     H      0.232050000000     0.760320000000     0.980580000000     0.0429023  
H218     H      0.243170000000     0.815550000000     0.982490000000     0.0333466  
H219     H      0.126640000000     0.690430000000     0.053270000000     0.0379809  
H220     H      0.293940000000     0.853650000000     0.078210000000     0.185048   
H221     H      0.247840000000     0.506920000000     0.346710000000     0.0439551  
H222     H      0.227650000000     0.587530000000     0.254630000000     0.0392095  
H223     H      0.165870000000     0.518010000000     0.269440000000     0.0385724  
H224     H      0.336210000000     0.449950000000     0.312470000000     0.0381369  
H225     H      0.182880000000     0.614130000000     0.259850000000     0.055021   
H226     H      0.247980000000     0.432680000000     0.316220000000     0.0378772  
H227     H      0.313330000000     0.499760000000     0.314330000000     0.0376506  
H228     H      0.277210000000     0.399520000000     0.352210000000     0.0465583  
H229     H      0.132900000000     0.545740000000     0.231830000000     0.0707544  
H230     H      0.212850000000     0.543760000000     0.326320000000     0.0547531  
H231     H      0.193960000000     0.616260000000     0.219210000000     0.0486486  
H232     H      0.265970000000     0.477450000000     0.251120000000     0.046578   
H233     H      0.215110000000     0.565380000000     0.221260000000     0.0385376  
H234     H      0.343180000000     0.467250000000     0.350390000000     0.0468226  
H235     H      0.257830000000     0.451570000000     0.352730000000     0.0411367  
H236     H      0.296340000000     0.491040000000     0.351630000000     0.0407564  
H237     H      0.230750000000     0.514020000000     0.230770000000     0.0431959  
H238     H      0.179240000000     0.524800000000     0.230150000000     0.0342407  
H239     H      0.292640000000     0.405240000000     0.313650000000     0.0382452  
H240     H      0.141070000000     0.586210000000     0.320680000000     0.18224    
H241     H      0.978050000000     0.241780000000     0.728170000000     0.0444694  
H242     H      0.906110000000     0.266290000000     0.820940000000     0.0383524  
H243     H      0.956240000000     0.341050000000     0.788610000000     0.0394199  
H244     H      0.047840000000     0.165650000000     0.774540000000     0.0393159  
H245     H      0.873390000000     0.307720000000     0.809540000000     0.0521927  
H246     H      0.047270000000     0.259380000000     0.750400000000     0.0391173  
H247     H      0.998240000000     0.180740000000     0.773780000000     0.0374878  
H248     H      0.080220000000     0.226990000000     0.717960000000     0.0499441  
H249     H      0.926640000000     0.377110000000     0.821960000000     0.0706446  
H250     H      0.939360000000     0.276160000000     0.744350000000     0.0548295  
H251     H      0.875050000000     0.302360000000     0.851680000000     0.0456312  
H252     H      0.013200000000     0.246460000000     0.822530000000     0.0470246  
H253     H      0.925260000000     0.289210000000     0.849480000000     0.0381204  
H254     H      0.030590000000     0.147400000000     0.741490000000     0.0456976  
H255     H      0.029450000000     0.239010000000     0.718860000000     0.0422955  
H256     H      0.000360000000     0.192310000000     0.732730000000     0.0404748  
H257     H      0.974650000000     0.281060000000     0.838630000000     0.0432231  
H258     H      0.954760000000     0.332710000000     0.830310000000     0.0343608  
H259     H      0.079840000000     0.217030000000     0.759360000000     0.0412879  
H260     H      0.888110000000     0.345620000000     0.739580000000     0.181823   
H261     H      0.715170000000     0.330310000000     0.026740000000     0.0471244  
H262     H      0.721970000000     0.234550000000     0.096090000000     0.0389891  
H263     H      0.664710000000     0.227420000000     0.018810000000     0.0386176  
H264     H      0.793490000000     0.372390000000     0.996250000000     0.0393188  
H265     H      0.702280000000     0.183880000000     0.101010000000     0.0531318  
H266     H      0.734270000000     0.315540000000     0.946520000000     0.0380171  
H267     H      0.790130000000     0.324530000000     0.024850000000     0.0376695  
H268     H      0.769680000000     0.342310000000     0.911410000000     0.0464974  
H269     H      0.629120000000     0.201700000000     0.055820000000     0.0692761  
H270     H      0.687680000000     0.291440000000     0.055760000000     0.0436798  
H271     H      0.686990000000     0.207300000000     0.131470000000     0.0482769  
H272     H      0.768030000000     0.258930000000     0.987440000000     0.0433612  
H273     H      0.687610000000     0.252660000000     0.098220000000     0.0396491  
H274     H      0.825770000000     0.351360000000     0.989980000000     0.0451483  
H275     H      0.768560000000     0.297160000000     0.945280000000     0.0404061  
H276     H      0.800990000000     0.302370000000     0.990780000000     0.0397892  
H277     H      0.740460000000     0.220060000000     0.016340000000     0.0536634  
H278     H      0.654840000000     0.248410000000     0.053760000000     0.0340734  
H279     H      0.754680000000     0.366120000000     0.941860000000     0.0397079  
H280     H      0.695490000000     0.144110000000     0.029040000000     0.18086    
H281     H      0.765900000000     0.560900000000     0.792320000000     0.0486809  
H282     H      0.657540000000     0.563560000000     0.777070000000     0.0383335  
H283     H      0.705930000000     0.550610000000     0.693200000000     0.0400276  
H284     H      0.799600000000     0.506030000000     0.867000000000     0.0445466  
H285     H      0.623520000000     0.561390000000     0.734270000000     0.0520556  
H286     H      0.794660000000     0.487000000000     0.768480000000     0.0407478  
H287     H      0.750040000000     0.510040000000     0.852620000000     0.0379464  
H288     H      0.825430000000     0.450330000000     0.799230000000     0.0537769  
H289     H      0.675000000000     0.590020000000     0.665440000000     0.0711348  
H290     H      0.727180000000     0.583550000000     0.761180000000     0.0440727  
H291     H      0.625350000000     0.600180000000     0.748480000000     0.0453856  
H292     H      0.726290000000     0.471860000000     0.784850000000     0.0440478  
H293     H      0.675870000000     0.595790000000     0.759620000000     0.0390519  
H294     H      0.780730000000     0.474160000000     0.884000000000     0.0472709  
H295     H      0.775050000000     0.457470000000     0.789040000000     0.0411217  
H296     H      0.749010000000     0.470960000000     0.838330000000     0.0402199  
H297     H      0.687840000000     0.494410000000     0.753140000000     0.0540453  
H298     H      0.704100000000     0.588030000000     0.711010000000     0.0347481  
H299     H      0.829820000000     0.489940000000     0.810100000000     0.0466521  
H300     H      0.637510000000     0.504490000000     0.678540000000     0.181362   
H301     H      0.966990000000     0.501050000000     0.090200000000     0.0473385  
H302     H      0.971860000000     0.434030000000     0.991580000000     0.0382367  
H303     H      0.925740000000     0.516900000000     0.979200000000     0.0382336  
H304     H      0.045760000000     0.527930000000     0.137950000000     0.0421615  
H305     H      0.955010000000     0.432000000000     0.937710000000     0.0524018  
H306     H      0.986910000000     0.576510000000     0.079880000000     0.0378291  
H307     H      0.044290000000     0.501760000000     0.087450000000     0.0378648  
H308     H      0.020620000000     0.610190000000     0.110170000000     0.0456646  
H309     H      0.887900000000     0.487070000000     0.949550000000     0.0689743  
H310     H      0.940310000000     0.475450000000     0.047720000000     0.0432211  
H311     H      0.934730000000     0.405130000000     0.960560000000     0.0455591  
H312     H      0.024860000000     0.538200000000     0.020820000000     0.0432668  
H313     H      0.936420000000     0.437330000000     0.007370000000     0.0382929  
H314     H      0.078540000000     0.535100000000     0.117560000000     0.0470044  
H315     H      0.021510000000     0.579460000000     0.061800000000     0.039623   
H316     H      0.055030000000     0.535830000000     0.066230000000     0.0391351  
H317     H      0.998500000000     0.512090000000     0.978400000000     0.0538269  
H318     H      0.909950000000     0.485260000000     0.000080000000     0.0341099  
H319     H      0.006420000000     0.578810000000     0.132860000000     0.0414339  
H320     H      0.961660000000     0.501240000000     0.897220000000     0.181879   
In1      In     0.853470000000     0.400200000000     0.894010000000     2.40771    
In2      In     0.105930000000     0.628390000000     0.166490000000     2.4188     
In3      In     0.341090000000     0.888460000000     0.920130000000     2.40628    
In4      In     0.606530000000     0.143620000000     0.148530000000     2.40314    
In5      In     0.356520000000     0.382410000000     0.418490000000     2.40958    
In6      In     0.594310000000     0.654020000000     0.657110000000     2.40748    
In7      In     0.853040000000     0.886740000000     0.400770000000     2.41394    
In8      In     0.098260000000     0.136510000000     0.659790000000     2.40403    
N1       N      0.906200000000     0.942150000000     0.450820000000    -0.155489   
N2       N      0.942220000000     0.980380000000     0.486840000000    -0.108054   
N3       N      0.994570000000     0.055830000000     0.580840000000    -0.112831   
N4       N      0.033710000000     0.090200000000     0.616890000000    -0.167698   
N5       N      0.641090000000     0.718480000000     0.610600000000    -0.156364   
N6       N      0.679320000000     0.754550000000     0.574900000000    -0.107248   
N7       N      0.770090000000     0.794810000000     0.495570000000    -0.11247    
N8       N      0.806710000000     0.829070000000     0.456380000000    -0.167017   
N9       N      0.141080000000     0.181970000000     0.590100000000    -0.155959   
N10      N      0.178930000000     0.217760000000     0.553500000000    -0.107338   
N11      N      0.268700000000     0.297370000000     0.514630000000    -0.112801   
N12      N      0.306960000000     0.333670000000     0.479440000000    -0.167542   
N13      N      0.547560000000     0.604990000000     0.593620000000    -0.15554    
N14      N      0.511390000000     0.566220000000     0.558230000000    -0.107505   
N15      N      0.431510000000     0.474850000000     0.520180000000    -0.112966   
N16      N      0.398060000000     0.433880000000     0.484350000000    -0.168176   
N17      N      0.793420000000     0.934960000000     0.352060000000    -0.155945   
N18      N      0.753880000000     0.970080000000     0.317360000000    -0.107706   
N19      N      0.697130000000     0.061710000000     0.244420000000    -0.112407   
N20      N      0.660100000000     0.095280000000     0.205150000000    -0.166852   
N21      N      0.554020000000     0.194010000000     0.205010000000    -0.157184   
N22      N      0.519820000000     0.226930000000     0.247990000000    -0.108425   
N23      N      0.439080000000     0.302270000000     0.312190000000    -0.112743   
N24      N      0.405770000000     0.334470000000     0.356640000000    -0.167598   
N25      N      0.160320000000     0.089050000000     0.705650000000    -0.155804   
N26      N      0.196570000000     0.052160000000     0.743020000000    -0.107512   
N27      N      0.241780000000     0.969530000000     0.835200000000    -0.112765   
N28      N      0.278290000000     0.933910000000     0.873310000000    -0.16671    
N29      N      0.386530000000     0.845540000000     0.850910000000    -0.156626   
N30      N      0.422590000000     0.811180000000     0.810800000000    -0.107574   
N31      N      0.508580000000     0.731950000000     0.761830000000    -0.112767   
N32      N      0.545440000000     0.698240000000     0.722320000000    -0.166826   
N33      N      0.395570000000     0.940590000000     0.972230000000    -0.154799   
N34      N      0.433440000000     0.977180000000     0.007720000000    -0.107778   
N35      N      0.527070000000     0.046170000000     0.055590000000    -0.11243    
N36      N      0.562440000000     0.085480000000     0.091150000000    -0.166204   
N37      N      0.067790000000     0.685050000000     0.230310000000    -0.155875   
N38      N      0.033420000000     0.725880000000     0.265380000000    -0.107443   
N39      N      0.942630000000     0.803380000000     0.305000000000    -0.112709   
N40      N      0.903750000000     0.838210000000     0.340720000000    -0.168714   
N41      N      0.300200000000     0.835760000000     0.985620000000    -0.156048   
N42      N      0.266130000000     0.794120000000     0.020150000000    -0.10717    
N43      N      0.183360000000     0.704740000000     0.055410000000    -0.113034   
N44      N      0.146490000000     0.667850000000     0.091700000000    -0.167915   
N45      N      0.158760000000     0.586120000000     0.228940000000    -0.155391   
N46      N      0.197670000000     0.552750000000     0.266340000000    -0.107569   
N47      N      0.279850000000     0.467050000000     0.311250000000    -0.113017   
N48      N      0.313670000000     0.429370000000     0.350230000000    -0.168512   
N49      N      0.895440000000     0.343090000000     0.833570000000    -0.156405   
N50      N      0.931340000000     0.301890000000     0.800840000000    -0.107398   
N51      N      0.021860000000     0.221710000000     0.765680000000    -0.112865   
N52      N      0.059160000000     0.184570000000     0.730140000000    -0.167581   
N53      N      0.659150000000     0.194920000000     0.093110000000    -0.155282   
N54      N      0.696540000000     0.229180000000     0.054720000000    -0.108188   
N55      N      0.759090000000     0.321190000000     0.988330000000    -0.112729   
N56      N      0.797500000000     0.354140000000     0.950020000000    -0.168187   
N57      N      0.644250000000     0.591850000000     0.702770000000    -0.15654    
N58      N      0.681730000000     0.552770000000     0.735890000000    -0.107504   
N59      N      0.772200000000     0.502530000000     0.809290000000    -0.112325   
N60      N      0.808100000000     0.463630000000     0.844500000000    -0.165977   
N61      N      0.912700000000     0.446070000000     0.945950000000    -0.156655   
N62      N      0.952340000000     0.477540000000     0.984090000000    -0.10797    
N63      N      0.012590000000     0.536490000000     0.084410000000    -0.112656   
N64      N      0.049590000000     0.573290000000     0.120620000000    -0.16786    
O1       O      0.861430000000     0.352990000000     0.871710000000    -0.503101   
O2       O      0.886820000000     0.390420000000     0.856180000000    -0.489832   
O3       O      0.819820000000     0.437680000000     0.890310000000    -0.496234   
O4       O      0.812250000000     0.373770000000     0.901940000000    -0.501148   
O5       O      0.893930000000     0.401870000000     0.924080000000    -0.499824   
O6       O      0.840060000000     0.378970000000     0.941310000000    -0.50616    
O7       O      0.841280000000     0.424800000000     0.848010000000    -0.491262   
O8       O      0.871300000000     0.443500000000     0.917030000000    -0.497188   
O9       O      0.073290000000     0.638490000000     0.204980000000    -0.500211   
O10      O      0.100460000000     0.674950000000     0.190890000000    -0.491072   
O11      O      0.117310000000     0.589570000000     0.200240000000    -0.492506   
O12      O      0.092940000000     0.582800000000     0.143980000000    -0.499868   
O13      O      0.110770000000     0.665780000000     0.129000000000    -0.501303   
O14      O      0.063520000000     0.619740000000     0.141830000000    -0.504731   
O15      O      0.147770000000     0.625060000000     0.193800000000    -0.496325   
O16      O      0.141300000000     0.629830000000     0.129420000000    -0.503426   
O17      O      0.311860000000     0.929680000000     0.912850000000    -0.486301   
O18      O      0.308280000000     0.892570000000     0.880360000000    -0.501719   
O19      O      0.373920000000     0.894620000000     0.959580000000    -0.494435   
O20      O      0.305060000000     0.879450000000     0.955160000000    -0.499673   
O21      O      0.377580000000     0.886450000000     0.884330000000    -0.500028   
O22      O      0.336690000000     0.845060000000     0.950390000000    -0.492302   
O23      O      0.363800000000     0.933510000000     0.931230000000    -0.488304   
O24      O      0.350020000000     0.847940000000     0.887260000000    -0.496479   
O25      O      0.593370000000     0.188380000000     0.172960000000    -0.501366   
O26      O      0.566000000000     0.149950000000     0.177710000000    -0.506277   
O27      O      0.576260000000     0.133810000000     0.107470000000    -0.49087    
O28      O      0.617540000000     0.168420000000     0.102250000000    -0.486732   
O29      O      0.621540000000     0.126890000000     0.196970000000    -0.501032   
O30      O      0.646770000000     0.171860000000     0.140390000000    -0.494804   
O31      O      0.592020000000     0.095620000000     0.133510000000    -0.498519   
O32      O      0.643350000000     0.110420000000     0.156150000000    -0.493165   
O33      O      0.316920000000     0.376280000000     0.448910000000    -0.501637   
O34      O      0.346690000000     0.339580000000     0.447970000000    -0.498258   
O35      O      0.396720000000     0.376030000000     0.389050000000    -0.501323   
O36      O      0.318780000000     0.388960000000     0.385160000000    -0.502642   
O37      O      0.393360000000     0.390810000000     0.452790000000    -0.502357   
O38      O      0.351010000000     0.423080000000     0.384910000000    -0.501979   
O39      O      0.366400000000     0.339860000000     0.388710000000    -0.498781   
O40      O      0.361460000000     0.425150000000     0.449250000000    -0.502798   
O41      O      0.586460000000     0.612270000000     0.625830000000    -0.491456   
O42      O      0.555270000000     0.647520000000     0.625350000000    -0.493511   
O43      O      0.555880000000     0.656750000000     0.690220000000    -0.495036   
O44      O      0.606510000000     0.625590000000     0.700740000000    -0.502844   
O45      O      0.603940000000     0.684040000000     0.613830000000    -0.50141    
O46      O      0.632310000000     0.621700000000     0.659630000000    -0.487111   
O47      O      0.583450000000     0.695350000000     0.688060000000    -0.498958   
O48      O      0.631110000000     0.687880000000     0.653830000000    -0.492547   
O49      O      0.868200000000     0.842010000000     0.378040000000    -0.505983   
O50      O      0.889220000000     0.883130000000     0.364730000000    -0.499841   
O51      O      0.815110000000     0.919370000000     0.398460000000    -0.492704   
O52      O      0.817650000000     0.851900000000     0.408610000000    -0.498604   
O53      O      0.888350000000     0.894630000000     0.436930000000    -0.497891   
O54      O      0.842030000000     0.865090000000     0.448760000000    -0.496718   
O55      O      0.832760000000     0.903620000000     0.354950000000    -0.504703   
O56      O      0.869530000000     0.933930000000     0.415550000000    -0.495342   
O57      O      0.105860000000     0.178340000000     0.627980000000    -0.484622   
O58      O      0.132750000000     0.139690000000     0.621780000000    -0.503247   
O59      O      0.066510000000     0.140720000000     0.700520000000    -0.507659   
O60      O      0.061150000000     0.133420000000     0.624890000000    -0.502483   
O61      O      0.125780000000     0.093980000000     0.667170000000    -0.489613   
O62      O      0.071730000000     0.093400000000     0.651140000000    -0.495303   
O63      O      0.091330000000     0.179980000000     0.689160000000    -0.490774   
O64      O      0.132220000000     0.131870000000     0.698180000000    -0.497615   
O65      O      0.954210000000     0.974700000000     0.417600000000    -0.336949   
O66      O      0.916400000000     0.991350000000     0.390940000000    -0.244018   
O67      O      0.647430000000     0.788780000000     0.622800000000    -0.336885   
O68      O      0.647530000000     0.765540000000     0.669890000000    -0.241413   
O69      O      0.125000000000     0.205220000000     0.521990000000    -0.337284   
O70      O      0.087650000000     0.211960000000     0.553610000000    -0.241511   
O71      O      0.560630000000     0.589350000000     0.523390000000    -0.336536   
O72      O      0.600860000000     0.582160000000     0.550110000000    -0.236061   
O73      O      0.731140000000     0.916460000000     0.352460000000    -0.336842   
O74      O      0.742140000000     0.920380000000     0.403720000000    -0.245113   
O75      O      0.577710000000     0.204460000000     0.269050000000    -0.336271   
O76      O      0.608520000000     0.231830000000     0.240590000000    -0.244873   
O77      O      0.224840000000     0.102270000000     0.709040000000    -0.337156   
O78      O      0.203050000000     0.147120000000     0.716470000000    -0.244651   
O79      O      0.393350000000     0.862560000000     0.779900000000    -0.337194   
O80      O      0.397960000000     0.906140000000     0.807150000000    -0.24419    
O81      O      0.381200000000     0.955110000000     0.040360000000    -0.335484   
O82      O      0.381360000000     0.903910000000     0.040050000000    -0.238661   
O83      O      0.090620000000     0.718310000000     0.290910000000    -0.336621   
O84      O      0.124060000000     0.721210000000     0.253680000000    -0.241546   
O85      O      0.288530000000     0.844590000000     0.058130000000    -0.335237   
O86      O      0.283630000000     0.890110000000     0.034600000000    -0.238166   
O87      O      0.149890000000     0.579560000000     0.301120000000    -0.336455   
O88      O      0.108560000000     0.566990000000     0.279010000000    -0.24189    
O89      O      0.896940000000     0.341040000000     0.759760000000    -0.336932   
O90      O      0.898790000000     0.390310000000     0.773940000000    -0.23888    
O91      O      0.689180000000     0.162170000000     0.040430000000    -0.337305   
O92      O      0.643960000000     0.155140000000     0.026820000000    -0.245221   
O93      O      0.645960000000     0.522700000000     0.687750000000    -0.336085   
O94      O      0.649590000000     0.546280000000     0.641000000000    -0.234387   
O95      O      0.952480000000     0.491900000000     0.915360000000    -0.336871   
O96      O      0.909820000000     0.509540000000     0.901690000000    -0.243435   


