data_structure

_audit_creation_method RASPA-1.0
_audit_creation_date 2023-5-25
_audit_author_name 'Poobodin Mano'

_cell_length_a    39.6956
_cell_length_b    46.4673
_cell_length_c    45.343
_cell_angle_alpha 90
_cell_angle_beta  90
_cell_angle_gamma 90
_cell_volume      83637.3

_symmetry_cell_setting          triclinic
_symmetry_space_group_name_Hall 'P 1'
_symmetry_space_group_name_H-M  'P 1'
_symmetry_Int_Tables_number     1

_symmetry_equiv_pos_as_xyz 'x,y,z'

loop_
_atom_site_label
_atom_site_type_symbol
_atom_site_fract_x
_atom_site_fract_y
_atom_site_fract_z
_atom_site_charge
C1       C      0.968600000000     0.348390000000     0.912610000000     0.402088   
C2       C      0.909810000000     0.353760000000     0.833080000000     0.407999   
C3       C      0.970170000000     0.279960000000     0.836850000000     0.401095   
C4       C      0.895620000000     0.281410000000     0.905460000000     0.406568   
C5       C      0.133200000000     0.573530000000     0.050430000000     0.403563   
C6       C      0.192550000000     0.578750000000     0.133820000000     0.407854   
C7       C      0.207220000000     0.637470000000     0.053050000000     0.412096   
C8       C      0.121470000000     0.645000000000     0.116680000000     0.405932   
C9       C      0.405240000000     0.835890000000     0.901290000000     0.402364   
C10      C      0.473380000000     0.911150000000     0.905730000000     0.405243   
C11      C      0.478540000000     0.837470000000     0.835440000000     0.402443   
C12      C      0.411470000000     0.913170000000     0.834830000000     0.404526   
C13      C      0.723980000000     0.136890000000     0.126410000000     0.400022   
C14      C      0.711870000000     0.068770000000     0.196940000000     0.407881   
C15      C      0.640340000000     0.137450000000     0.187470000000     0.404566   
C16      C      0.649460000000     0.066820000000     0.117920000000     0.409782   
C17      C      0.479880000000     0.440790000000     0.390190000000     0.409675   
C18      C      0.407760000000     0.429270000000     0.320710000000     0.402849   
C19      C      0.489150000000     0.363540000000     0.335890000000     0.409605   
C20      C      0.402590000000     0.369990000000     0.396620000000     0.405241   
C21      C      0.736780000000     0.568180000000     0.684620000000     0.403875   
C22      C      0.666590000000     0.636340000000     0.676470000000     0.404155   
C23      C      0.738600000000     0.633840000000     0.605110000000     0.403496   
C24      C      0.674250000000     0.560600000000     0.608860000000     0.404906   
C25      C      0.983070000000     0.801150000000     0.344460000000     0.401325   
C26      C      0.914670000000     0.867920000000     0.331810000000     0.408046   
C27      C      0.919930000000     0.817790000000     0.422600000000     0.407377   
C28      C      0.985290000000     0.883880000000     0.403120000000     0.403072   
C29      C      0.173060000000     0.081470000000     0.566330000000     0.403142   
C30      C      0.178750000000     0.162940000000     0.625600000000     0.40378    
C31      C      0.241700000000     0.084670000000     0.631200000000     0.405494   
C32      C      0.247100000000     0.153180000000     0.555700000000     0.406279   
C33      C      0.056870000000     0.921360000000     0.438910000000    -0.0332799  
C34      C      0.099070000000     0.044600000000     0.533520000000    -0.0308848  
C35      C      0.171480000000     0.035480000000     0.539620000000    -0.00465169 
C36      C      0.117800000000     0.058540000000     0.559310000000    -0.00488505 
C37      C      0.083040000000     0.974220000000     0.514000000000    -0.0544754  
C38      C      0.071120000000     0.993260000000     0.456430000000    -0.0541282  
C39      C      0.095950000000     0.000810000000     0.504860000000     0.0615192  
C40      C      0.150210000000     0.022550000000     0.514850000000    -0.0308996  
C41      C      0.058630000000     0.966480000000     0.465440000000     0.0604652  
C42      C      0.004850000000     0.945240000000     0.452700000000    -0.0602948  
C43      C      0.064410000000     0.957160000000     0.494560000000    -0.0559533  
C44      C      0.985330000000     0.931540000000     0.426960000000     0.0848553  
C45      C      0.040250000000     0.906410000000     0.412660000000    -0.00288786 
C46      C      0.089540000000     0.010410000000     0.475940000000    -0.0567013  
C47      C      0.979950000000     0.953320000000     0.401920000000    -0.184752   
C48      C      0.901220000000     0.761150000000     0.476450000000    -0.0334203  
C49      C      0.759700000000     0.696270000000     0.557480000000    -0.0308878  
C50      C      0.790350000000     0.642300000000     0.576570000000    -0.00504346 
C51      C      0.737020000000     0.671190000000     0.566670000000    -0.0052136  
C52      C      0.817570000000     0.705430000000     0.500800000000    -0.0543039  
C53      C      0.843320000000     0.751910000000     0.532850000000    -0.0538862  
C54      C      0.811110000000     0.707370000000     0.531090000000     0.0614564  
C55      C      0.810500000000     0.668760000000     0.566990000000    -0.0308896  
C56      C      0.849720000000     0.750000000000     0.502530000000     0.060229   
C57      C      0.849970000000     0.788060000000     0.466070000000    -0.0597753  
C58      C      0.836710000000     0.726490000000     0.486550000000    -0.0557515  
C59      C      0.870000000000     0.814250000000     0.454930000000     0.0837135  
C60      C      0.923480000000     0.786080000000     0.466160000000    -0.0025322  
C61      C      0.824210000000     0.730800000000     0.547110000000    -0.0567213  
C62      C      0.871330000000     0.838080000000     0.478340000000    -0.184856   
C63      C      0.306360000000     0.209200000000     0.532070000000    -0.0331967  
C64      C      0.339510000000     0.315730000000     0.415790000000    -0.0306991  
C65      C      0.389920000000     0.350550000000     0.446050000000    -0.00513357 
C66      C      0.347790000000     0.345970000000     0.404490000000    -0.00589192 
C67      C      0.307310000000     0.288590000000     0.481610000000    -0.05456    
C68      C      0.335010000000     0.235510000000     0.465540000000    -0.0539722  
C69      C      0.332950000000     0.287620000000     0.460410000000     0.0613623  
C70      C      0.380240000000     0.320140000000     0.455760000000    -0.030849   
C71      C      0.309480000000     0.236500000000     0.486840000000     0.0601824  
C72      C      0.262750000000     0.203820000000     0.494780000000    -0.0597884  
C73      C      0.295610000000     0.263310000000     0.494780000000    -0.0558485  
C74      C      0.253720000000     0.173380000000     0.505620000000     0.0836111  
C75      C      0.299740000000     0.179080000000     0.544330000000    -0.00315821 
C76      C      0.346750000000     0.260810000000     0.452400000000    -0.0567603  
C77      C      0.268710000000     0.150270000000     0.485300000000    -0.184921   
C78      C      0.554930000000     0.468910000000     0.425520000000    -0.0334486  
C79      C      0.604030000000     0.529910000000     0.568430000000    -0.0307147  
C80      C      0.677330000000     0.525830000000     0.567640000000    -0.00557709 
C81      C      0.623920000000     0.531460000000     0.597260000000    -0.00527941 
C82      C      0.591620000000     0.478380000000     0.515380000000    -0.0543835  
C83      C      0.572180000000     0.522610000000     0.477140000000    -0.0539429  
C84      C      0.602320000000     0.506580000000     0.520910000000     0.0615934  
C85      C      0.655660000000     0.524290000000     0.539740000000    -0.0309054  
C86      C      0.561370000000     0.494420000000     0.471680000000     0.0604209  
C87      C      0.505830000000     0.479670000000     0.455980000000    -0.0602962  
C88      C      0.571280000000     0.472260000000     0.491040000000    -0.0557191  
C89      C      0.482030000000     0.477890000000     0.429260000000     0.0849428  
C90      C      0.533310000000     0.467090000000     0.397670000000    -0.00256324 
C91      C      0.592450000000     0.528750000000     0.501560000000    -0.0566767  
C92      C      0.472640000000     0.507970000000     0.417950000000    -0.186128   
C93      C      0.885660000000     0.930120000000     0.291030000000    -0.0331433  
C94      C      0.735140000000     0.001250000000     0.232350000000    -0.0309172  
C95      C      0.759440000000     0.060480000000     0.231030000000    -0.00484761 
C96      C      0.710150000000     0.026130000000     0.229430000000    -0.00497915 
C97      C      0.794370000000     0.981470000000     0.285630000000    -0.0545288  
C98      C      0.823990000000     0.947610000000     0.241710000000    -0.0540105  
C99      C      0.787310000000     0.987200000000     0.255960000000     0.0614715  
C100     C      0.782780000000     0.034400000000     0.233800000000    -0.0310338  
C101     C      0.830960000000     0.941810000000     0.271400000000     0.0603018  
C102     C      0.838790000000     0.896730000000     0.297550000000    -0.0596086  
C103     C      0.816110000000     0.959070000000     0.293390000000    -0.0559505  
C104     C      0.862900000000     0.871050000000     0.301520000000     0.0829654  
C105     C      0.911430000000     0.905880000000     0.293870000000    -0.00269224 
C106     C      0.802470000000     0.970170000000     0.233950000000    -0.0567207  
C107     C      0.865210000000     0.853030000000     0.273230000000    -0.184747   
C108     C      0.591520000000     0.202560000000     0.203750000000    -0.0333645  
C109     C      0.534930000000     0.296000000000     0.324850000000    -0.0309072  
C110     C      0.521380000000     0.348670000000     0.291940000000    -0.00469625 
C111     C      0.531010000000     0.324570000000     0.341260000000    -0.0053702  
C112     C      0.589970000000     0.271550000000     0.269470000000    -0.054432   
C113     C      0.542910000000     0.227660000000     0.260310000000    -0.0540523  
C114     C      0.557010000000     0.274880000000     0.279920000000     0.061439   
C115     C      0.525260000000     0.319180000000     0.277370000000    -0.0311005  
C116     C      0.575990000000     0.224160000000     0.250210000000     0.0603742  
C117     C      0.613030000000     0.182660000000     0.249680000000    -0.059677   
C118     C      0.599440000000     0.246520000000     0.254550000000    -0.0558757  
C119     C      0.618050000000     0.152770000000     0.235810000000     0.0832873  
C120     C      0.594920000000     0.173620000000     0.187950000000    -0.00236273 
C121     C      0.533310000000     0.252860000000     0.274870000000    -0.0567671  
C122     C      0.589850000000     0.132050000000     0.245060000000    -0.184508   
C123     C      0.342980000000     0.953410000000     0.798130000000    -0.0332656  
C124     C      0.310300000000     0.045380000000     0.669390000000    -0.0308678  
C125     C      0.237020000000     0.049740000000     0.671740000000    -0.00448672 
C126     C      0.290920000000     0.054190000000     0.641670000000    -0.00468721 
C127     C      0.312340000000     0.983320000000     0.711390000000    -0.0543619  
C128     C      0.340550000000     0.016260000000     0.756720000000    -0.053854   
C129     C      0.308180000000     0.013250000000     0.711270000000     0.061604   
C130     C      0.258900000000     0.041140000000     0.698040000000    -0.0309067  
C131     C      0.344660000000     0.986330000000     0.756860000000     0.0603401  
C132     C      0.394540000000     0.959250000000     0.769920000000    -0.0596008  
C133     C      0.330440000000     0.969880000000     0.733930000000    -0.0557958  
C134     C      0.416640000000     0.950230000000     0.796200000000     0.0833426  
C135     C      0.362320000000     0.944230000000     0.825720000000    -0.00273561 
C136     C      0.322490000000     0.029710000000     0.734140000000    -0.0567888  
C137     C      0.433160000000     0.976520000000     0.810750000000    -0.183525   
C138     C      0.596260000000     0.684650000000     0.698010000000    -0.0333187  
C139     C      0.547470000000     0.788330000000     0.812490000000    -0.0308388  
C140     C      0.484370000000     0.810830000000     0.788820000000    -0.00495241 
C141     C      0.534090000000     0.817140000000     0.823750000000    -0.00495688 
C142     C      0.575560000000     0.764850000000     0.744400000000    -0.054215   
C143     C      0.566890000000     0.708780000000     0.765440000000    -0.0540053  
C144     C      0.553910000000     0.759870000000     0.768250000000     0.0613806  
C145     C      0.500200000000     0.782310000000     0.779170000000    -0.0309598  
C146     C      0.588670000000     0.713780000000     0.741690000000     0.060444   
C147     C      0.643030000000     0.692190000000     0.731510000000    -0.0597254  
C148     C      0.592820000000     0.742060000000     0.731130000000    -0.0559435  
C149     C      0.659900000000     0.663650000000     0.722690000000     0.0835967  
C150     C      0.610420000000     0.655840000000     0.687440000000    -0.00250214 
C151     C      0.549580000000     0.731560000000     0.778670000000    -0.0566625  
C152     C      0.654650000000     0.640660000000     0.746580000000    -0.183638   
C153     C      0.543040000000     0.948060000000     0.944070000000    -0.0333064  
C154     C      0.579820000000     0.031030000000     0.078010000000    -0.0310987  
C155     C      0.653250000000     0.033380000000     0.075960000000    -0.00496197 
C156     C      0.599500000000     0.037690000000     0.106170000000    -0.00455428 
C157     C      0.575280000000     0.971620000000     0.032370000000    -0.054465   
C158     C      0.548190000000     0.007990000000     0.989320000000    -0.0540456  
C159     C      0.580710000000     0.001330000000     0.034280000000     0.0615529  
C160     C      0.631140000000     0.026860000000     0.049150000000    -0.0309987  
C161     C      0.542760000000     0.978270000000     0.987420000000     0.0604027  
C162     C      0.491890000000     0.953210000000     0.973040000000    -0.0597289  
C163     C      0.556460000000     0.960090000000     0.009180000000    -0.0558448  
C164     C      0.469330000000     0.946210000000     0.946400000000     0.0833918  
C165     C      0.523170000000     0.941060000000     0.916110000000    -0.00263672 
C166     C      0.567000000000     0.019530000000     0.012530000000    -0.0568244  
C167     C      0.453430000000     0.973630000000     0.933630000000    -0.183616   
C168     C      0.101240000000     0.702810000000     0.167370000000    -0.0333824  
C169     C      0.991600000000     0.742400000000     0.291610000000    -0.0306314  
C170     C      0.035020000000     0.785080000000     0.319470000000    -0.00587248 
C171     C      0.984600000000     0.752120000000     0.323290000000    -0.00594486 
C172     C      0.060960000000     0.710180000000     0.256490000000    -0.0543466  
C173     C      0.032390000000     0.729360000000     0.203650000000    -0.0541687  
C174     C      0.036770000000     0.732090000000     0.257120000000     0.0613607  
C175     C      0.040040000000     0.774480000000     0.287850000000    -0.030577   
C176     C      0.056460000000     0.707340000000     0.203040000000     0.0603433  
C177     C      0.060300000000     0.664080000000     0.173300000000    -0.0599893  
C178     C      0.070930000000     0.697950000000     0.229730000000    -0.0558083  
C179     C      0.066950000000     0.652870000000     0.141900000000     0.0838282  
C180     C      0.108960000000     0.693640000000     0.135690000000    -0.00261263 
C181     C      0.022690000000     0.741820000000     0.230400000000    -0.0566214  
C182     C      0.039090000000     0.662380000000     0.120560000000    -0.185278   
C183     C      0.282990000000     0.677570000000     0.030220000000    -0.0336114  
C184     C      0.334930000000     0.787240000000     0.922560000000    -0.0308071  
C185     C      0.400220000000     0.805530000000     0.945510000000    -0.00492247 
C186     C      0.349340000000     0.816280000000     0.912970000000    -0.0052147  
C187     C      0.309220000000     0.760190000000     0.990220000000    -0.0543848  
C188     C      0.311890000000     0.705710000000     0.964120000000    -0.0539625  
C189     C      0.328850000000     0.756040000000     0.964920000000     0.0614836  
C190     C      0.383270000000     0.776980000000     0.953480000000    -0.0309462  
C191     C      0.291880000000     0.709970000000     0.989190000000     0.0601733  
C192     C      0.235870000000     0.691890000000     0.999270000000    -0.0598628  
C193     C      0.290910000000     0.737400000000     0.002370000000    -0.0557411  
C194     C      0.215920000000     0.664500000000     0.006860000000     0.0837555  
C195     C      0.265570000000     0.649470000000     0.039020000000    -0.00220597 
C196     C      0.330350000000     0.728480000000     0.952050000000    -0.0568187  
C197     C      0.217450000000     0.642610000000     0.981540000000    -0.183738   
C198     C      0.358560000000     0.488460000000     0.287120000000    -0.0334078  
C199     C      0.234460000000     0.518360000000     0.170780000000    -0.0307836  
C200     C      0.220020000000     0.578800000000     0.182630000000    -0.00497869 
C201     C      0.202430000000     0.532110000000     0.158360000000    -0.00528207 
C202     C      0.264690000000     0.505290000000     0.241060000000    -0.0544039  
C203     C      0.329020000000     0.501130000000     0.216280000000    -0.0539522  
C204     C      0.270970000000     0.517700000000     0.213450000000     0.0613684  
C205     C      0.251360000000     0.563300000000     0.194140000000    -0.0308057  
C206     C      0.322790000000     0.488860000000     0.243950000000     0.0603631  
C207     C      0.343590000000     0.443560000000     0.263120000000    -0.0599772  
C208     C      0.290300000000     0.490930000000     0.256250000000    -0.0559446  
C209     C      0.375700000000     0.428460000000     0.274150000000     0.0846002  
C210     C      0.391300000000     0.475840000000     0.299290000000    -0.00279449 
C211     C      0.303400000000     0.515420000000     0.201060000000    -0.0566902  
C212     C      0.401910000000     0.425930000000     0.249380000000    -0.185182   
C213     C      0.151240000000     0.196680000000     0.693520000000    -0.0331568  
C214     C      0.997980000000     0.249090000000     0.766870000000    -0.0309141  
C215     C      0.020780000000     0.250300000000     0.827990000000    -0.00559392 
C216     C      0.972190000000     0.249920000000     0.791940000000    -0.00537986 
C217     C      0.059370000000     0.200640000000     0.745180000000    -0.0543496  
C218     C      0.089910000000     0.245780000000     0.714340000000    -0.0540578  
C219     C      0.051940000000     0.229120000000     0.752880000000     0.0614233  
C220     C      0.044810000000     0.249470000000     0.801640000000    -0.0306163  
C221     C      0.097440000000     0.217290000000     0.706720000000     0.0603214  
C222     C      0.105070000000     0.197140000000     0.657970000000    -0.0594028  
C223     C      0.081880000000     0.194670000000     0.722310000000    -0.0558181  
C224     C      0.129640000000     0.195180000000     0.631790000000     0.0828021  
C225     C      0.177510000000     0.195180000000     0.668920000000    -0.00286333 
C226     C      0.067340000000     0.251750000000     0.737200000000    -0.0567193  
C227     C      0.134770000000     0.224670000000     0.617230000000    -0.184492   
C228     C      0.830880000000     0.262730000000     0.960120000000    -0.0332801  
C229     C      0.790410000000     0.155060000000     0.073710000000    -0.0308194  
C230     C      0.736280000000     0.184580000000     0.104940000000    -0.00604981 
C231     C      0.780230000000     0.145200000000     0.104670000000    -0.00544214 
C232     C      0.822420000000     0.218650000000     0.044570000000    -0.0543524  
C233     C      0.799860000000     0.199370000000     0.989580000000    -0.0539893  
C234     C      0.797480000000     0.197370000000     0.043180000000     0.061398   
C235     C      0.747930000000     0.192940000000     0.073940000000    -0.0305091  
C236     C      0.824830000000     0.220610000000     0.990980000000     0.0603255  
C237     C      0.874660000000     0.226110000000     0.960680000000    -0.0597411  
C238     C      0.836020000000     0.230260000000     0.018750000000    -0.0558229  
C239     C      0.886750000000     0.234370000000     0.929570000000     0.0832655  
C240     C      0.840610000000     0.272480000000     0.929040000000    -0.00276492 
C241     C      0.786190000000     0.187810000000     0.015400000000    -0.0566399  
C242     C      0.874010000000     0.212830000000     0.906450000000    -0.184404   
C243     C      0.896380000000     0.423390000000     0.796290000000    -0.0335548  
C244     C      0.758450000000     0.503090000000     0.725840000000    -0.0307778  
C245     C      0.786370000000     0.560420000000     0.716580000000    -0.00526727 
C246     C      0.734870000000     0.528630000000     0.720870000000    -0.00539761 
C247     C      0.814820000000     0.484210000000     0.779830000000    -0.0544021  
C248     C      0.843770000000     0.446330000000     0.739150000000    -0.0539542  
C249     C      0.810290000000     0.489010000000     0.749600000000     0.0613604  
C250     C      0.808090000000     0.533680000000     0.721900000000    -0.0309656  
C251     C      0.848060000000     0.441400000000     0.769390000000     0.0603269  
C252     C      0.844590000000     0.395500000000     0.794270000000    -0.0600853  
C253     C      0.833490000000     0.460620000000     0.789750000000    -0.0559467  
C254     C      0.863480000000     0.367050000000     0.799450000000     0.0844454  
C255     C      0.917670000000     0.396390000000     0.801390000000    -0.00253386 
C256     C      0.825030000000     0.469890000000     0.729240000000    -0.0566633  
C257     C      0.867690000000     0.350210000000     0.770550000000    -0.185263   
C258     C      0.065650000000     0.527390000000     0.022270000000    -0.0332229  
C259     C      0.036980000000     0.393280000000     0.940330000000    -0.0305787  
C260     C      0.966830000000     0.381550000000     0.955180000000    -0.00530745 
C261     C      0.022350000000     0.363190000000     0.935490000000    -0.00560609 
C262     C      0.048900000000     0.436900000000     0.001780000000    -0.0544204  
C263     C      0.054190000000     0.482930000000     0.962300000000    -0.053968   
C264     C      0.035610000000     0.434190000000     0.973310000000     0.0614732  
C265     C      0.983360000000     0.411040000000     0.959280000000    -0.0308342  
C266     C      0.067680000000     0.485570000000     0.990710000000     0.0602439  
C267     C      0.119720000000     0.507900000000     0.006700000000    -0.0594914  
C268     C      0.064740000000     0.462360000000     0.010530000000    -0.0558254  
C269     C      0.137390000000     0.537090000000     0.010930000000     0.0831569  
C270     C      0.080600000000     0.557410000000     0.026670000000    -0.00271622 
C271     C      0.038190000000     0.457520000000     0.953600000000    -0.0567876  
C272     C      0.143070000000     0.552240000000     0.981250000000    -0.183908   
H1       H      0.098990000000     0.030980000000     0.468410000000     0.0406035  
H2       H      0.084000000000     0.924680000000     0.433680000000     0.0354353  
H3       H      0.993210000000     0.966310000000     0.458490000000     0.0410733  
H4       H      0.175870000000     0.018650000000     0.556640000000     0.0368505  
H5       H      0.046970000000     0.918300000000     0.392200000000     0.0361433  
H6       H      0.072620000000     0.040440000000     0.540500000000     0.034845   
H7       H      0.161980000000     0.001900000000     0.507880000000     0.0350077  
H8       H      0.106860000000     0.080220000000     0.563390000000     0.0445076  
H9       H      0.959990000000     0.925470000000     0.435460000000     0.0212035  
H10      H      0.066670000000     0.000760000000     0.434160000000     0.0430703  
H11      H      0.050890000000     0.884360000000     0.410660000000     0.044942   
H12      H      0.087620000000     0.966660000000     0.536230000000     0.0445539  
H13      H      0.055180000000     0.907070000000     0.458580000000     0.037564   
H14      H      0.196450000000     0.041670000000     0.530480000000     0.0431622  
H15      H      0.098530000000     0.059810000000     0.514540000000     0.0377854  
H16      H      0.150390000000     0.037480000000     0.495630000000     0.0374951  
H17      H      0.054780000000     0.936670000000     0.502140000000     0.0403908  
H18      H      0.002640000000     0.931080000000     0.472430000000     0.0424738  
H19      H      0.113550000000     0.045380000000     0.579450000000     0.037887   
H20      H      0.965490000000     0.972200000000     0.410040000000     0.0627475  
H21      H      0.965350000000     0.943220000000     0.383760000000     0.0754859  
H22      H      0.004440000000     0.960890000000     0.392950000000     0.0726633  
H23      H      0.819660000000     0.732760000000     0.570560000000     0.0406166  
H24      H      0.915120000000     0.748910000000     0.493700000000     0.0352031  
H25      H      0.825480000000     0.795420000000     0.475410000000     0.0415757  
H26      H      0.789520000000     0.626790000000     0.557900000000     0.0386459  
H27      H      0.932110000000     0.798320000000     0.485830000000     0.0335434  
H28      H      0.746020000000     0.709370000000     0.540770000000     0.0348009  
H29      H      0.834810000000     0.661340000000     0.557410000000     0.0352794  
H30      H      0.714790000000     0.679950000000     0.578600000000     0.0426119  
H31      H      0.856120000000     0.823100000000     0.435620000000     0.024916   
H32      H      0.853170000000     0.769860000000     0.545420000000     0.0429294  
H33      H      0.946230000000     0.777070000000     0.455220000000     0.0429883  
H34      H      0.807710000000     0.687510000000     0.488210000000     0.0447467  
H35      H      0.896500000000     0.746450000000     0.457490000000     0.0387345  
H36      H      0.803830000000     0.631670000000     0.595110000000     0.044796   
H37      H      0.764700000000     0.710150000000     0.577020000000     0.0371122  
H38      H      0.816180000000     0.682250000000     0.586680000000     0.0376306  
H39      H      0.841300000000     0.724460000000     0.463120000000     0.0408636  
H40      H      0.844200000000     0.773880000000     0.446920000000     0.0439841  
H41      H      0.727620000000     0.660280000000     0.546460000000     0.0372909  
H42      H      0.845470000000     0.845610000000     0.483670000000     0.0630065  
H43      H      0.885900000000     0.856710000000     0.469810000000     0.0718676  
H44      H      0.883490000000     0.830290000000     0.498910000000     0.071801   
H45      H      0.366680000000     0.259470000000     0.436180000000     0.0406364  
H46      H      0.333370000000     0.214530000000     0.535780000000     0.0351099  
H47      H      0.257140000000     0.205600000000     0.470770000000     0.0412281  
H48      H      0.375550000000     0.366260000000     0.459610000000     0.0366637  
H49      H      0.318720000000     0.164040000000     0.534980000000     0.035109   
H50      H      0.312700000000     0.310950000000     0.410500000000     0.0346535  
H51      H      0.383650000000     0.318560000000     0.480070000000     0.0350235  
H52      H      0.345800000000     0.346110000000     0.380030000000     0.0434768  
H53      H      0.225810000000     0.171300000000     0.504390000000     0.0226389  
H54      H      0.345960000000     0.215060000000     0.459280000000     0.0430055  
H55      H      0.303480000000     0.179560000000     0.568630000000     0.043646   
H56      H      0.296550000000     0.309060000000     0.488060000000     0.0441916  
H57      H      0.290770000000     0.225070000000     0.544440000000     0.0372443  
H58      H      0.417170000000     0.353940000000     0.450530000000     0.0445454  
H59      H      0.355620000000     0.299820000000     0.404040000000     0.0375132  
H60      H      0.397490000000     0.304380000000     0.445060000000     0.0384055  
H61      H      0.275960000000     0.264690000000     0.511260000000     0.0399536  
H62      H      0.246400000000     0.219630000000     0.506440000000     0.0421902  
H63      H      0.328690000000     0.361220000000     0.413290000000     0.0362617  
H64      H      0.258560000000     0.152640000000     0.462600000000     0.0630891  
H65      H      0.261820000000     0.128540000000     0.493520000000     0.0727235  
H66      H      0.296610000000     0.151910000000     0.484430000000     0.0723308  
H67      H      0.600140000000     0.550760000000     0.505460000000     0.040971   
H68      H      0.580520000000     0.476490000000     0.419170000000     0.0352205  
H69      H      0.495250000000     0.494960000000     0.472490000000     0.0418225  
H70      H      0.683180000000     0.503520000000     0.574880000000     0.036772   
H71      H      0.534610000000     0.488080000000     0.385970000000     0.0339552  
H72      H      0.578950000000     0.520250000000     0.573200000000     0.0351993  
H73      H      0.668730000000     0.510410000000     0.523340000000     0.0350906  
H74      H      0.610650000000     0.546150000000     0.612740000000     0.0460617  
H75      H      0.458330000000     0.467550000000     0.436990000000     0.0248434  
H76      H      0.564610000000     0.539880000000     0.462550000000     0.0431622  
H77      H      0.544210000000     0.450520000000     0.382780000000     0.0432724  
H78      H      0.598850000000     0.461160000000     0.530170000000     0.0446346  
H79      H      0.557330000000     0.446980000000     0.435200000000     0.0386448  
H80      H      0.701520000000     0.536680000000     0.562250000000     0.0434593  
H81      H      0.600040000000     0.552120000000     0.559870000000     0.0388205  
H82      H      0.653240000000     0.546290000000     0.530250000000     0.0379474  
H83      H      0.563080000000     0.450320000000     0.487470000000     0.0409081  
H84      H      0.507020000000     0.458080000000     0.466610000000     0.0444458  
H85      H      0.624360000000     0.509660000000     0.607370000000     0.0373209  
H86      H      0.458970000000     0.520130000000     0.435320000000     0.0634208  
H87      H      0.455840000000     0.506040000000     0.398460000000     0.0741175  
H88      H      0.495390000000     0.520370000000     0.411500000000     0.0725893  
H89      H      0.797740000000     0.974360000000     0.210840000000     0.0408209  
H90      H      0.896380000000     0.947000000000     0.276350000000     0.0345112  
H91      H      0.814640000000     0.889090000000     0.287810000000     0.0416195  
H92      H      0.754550000000     0.069190000000     0.253470000000     0.0376822  
H93      H      0.918750000000     0.898660000000     0.271400000000     0.0328068  
H94      H      0.722490000000     0.983270000000     0.244190000000     0.0348855  
H95      H      0.805380000000     0.040930000000     0.246700000000     0.0350282  
H96      H      0.688720000000     0.019100000000     0.215380000000     0.0437923  
H97      H      0.851960000000     0.856940000000     0.318890000000     0.0248616  
H98      H      0.835500000000     0.934710000000     0.224560000000     0.0429661  
H99      H      0.934400000000     0.914540000000     0.304720000000     0.0420807  
H100     H      0.783110000000     0.994540000000     0.302770000000     0.0443547  
H101     H      0.881250000000     0.939840000000     0.313160000000     0.0380877  
H102     H      0.772470000000     0.077450000000     0.218040000000     0.0447988  
H103     H      0.742140000000     0.993610000000     0.209900000000     0.037896   
H104     H      0.791210000000     0.027670000000     0.211410000000     0.0385477  
H105     H      0.821450000000     0.955360000000     0.316470000000     0.0405072  
H106     H      0.832990000000     0.905720000000     0.319740000000     0.0436758  
H107     H      0.699990000000     0.031210000000     0.251680000000     0.0369908  
H108     H      0.840150000000     0.843860000000     0.267690000000     0.0627916  
H109     H      0.883080000000     0.834920000000     0.276540000000     0.0696289  
H110     H      0.874040000000     0.866220000000     0.254320000000     0.0713782  
H111     H      0.507510000000     0.255120000000     0.282190000000     0.0404693  
H112     H      0.570270000000     0.214600000000     0.193530000000     0.0350687  
H113     H      0.608070000000     0.180300000000     0.273740000000     0.0415551  
H114     H      0.545880000000     0.360200000000     0.290590000000     0.0373333  
H115     H      0.569920000000     0.162850000000     0.187720000000     0.0349616  
H116     H      0.552610000000     0.282100000000     0.337500000000     0.0348603  
H117     H      0.535660000000     0.322380000000     0.254810000000     0.0346252  
H118     H      0.518720000000     0.320460000000     0.362890000000     0.0432847  
H119     H      0.642050000000     0.143940000000     0.244730000000     0.0242536  
H120     H      0.524510000000     0.210790000000     0.256800000000     0.0429554  
H121     H      0.602280000000     0.177680000000     0.164660000000     0.0447891  
H122     H      0.608320000000     0.288480000000     0.272830000000     0.0445211  
H123     H      0.615010000000     0.215290000000     0.200510000000     0.0388304  
H124     H      0.502460000000     0.361370000000     0.279370000000     0.0425855  
H125     H      0.509980000000     0.285080000000     0.324000000000     0.0370988  
H126     H      0.500040000000     0.308860000000     0.275300000000     0.0377123  
H127     H      0.625000000000     0.244600000000     0.246510000000     0.0406945  
H128     H      0.636900000000     0.195020000000     0.247220000000     0.043376   
H129     H      0.556520000000     0.333470000000     0.345680000000     0.0371216  
H130     H      0.589740000000     0.129300000000     0.269400000000     0.063062   
H131     H      0.594040000000     0.110610000000     0.234860000000     0.0711939  
H132     H      0.564810000000     0.140200000000     0.238010000000     0.0722417  
H133     H      0.319710000000     0.052880000000     0.734520000000     0.0407892  
H134     H      0.319260000000     0.964180000000     0.805190000000     0.0351899  
H135     H      0.409010000000     0.974120000000     0.755390000000     0.0414417  
H136     H      0.226070000000     0.029940000000     0.661840000000     0.0369724  
H137     H      0.364320000000     0.963000000000     0.840830000000     0.033497   
H138     H      0.333720000000     0.034060000000     0.662460000000     0.0350613  
H139     H      0.243930000000     0.026630000000     0.712540000000     0.0350462  
H140     H      0.305880000000     0.070630000000     0.629570000000     0.0446108  
H141     H      0.437290000000     0.936510000000     0.787330000000     0.0240394  
H142     H      0.351430000000     0.029170000000     0.774180000000     0.04283    
H143     H      0.347550000000     0.927340000000     0.837330000000     0.0444258  
H144     H      0.301520000000     0.970420000000     0.693900000000     0.0447523  
H145     H      0.336140000000     0.933900000000     0.785170000000     0.0384906  
H146     H      0.215760000000     0.063190000000     0.679840000000     0.0436109  
H147     H      0.317680000000     0.065050000000     0.681850000000     0.0380476  
H148     H      0.265510000000     0.060750000000     0.710920000000     0.0379858  
H149     H      0.333350000000     0.946730000000     0.733470000000     0.0408655  
H150     H      0.388390000000     0.939760000000     0.756650000000     0.0437856  
H151     H      0.288430000000     0.035080000000     0.627070000000     0.0378993  
H152     H      0.449350000000     0.988020000000     0.794620000000     0.0625975  
H153     H      0.449250000000     0.969520000000     0.829470000000     0.0695027  
H154     H      0.413820000000     0.991680000000     0.819240000000     0.0706275  
H155     H      0.533010000000     0.727130000000     0.797070000000     0.0404479  
H156     H      0.568300000000     0.683870000000     0.696150000000     0.0352984  
H157     H      0.650130000000     0.697750000000     0.754590000000     0.0413817  
H158     H      0.490140000000     0.827470000000     0.771940000000     0.0386354  
H159     H      0.596630000000     0.638170000000     0.698740000000     0.0357497  
H160     H      0.575450000000     0.788590000000     0.814150000000     0.0350981  
H161     H      0.492840000000     0.778110000000     0.755870000000     0.0350105  
H162     H      0.539500000000     0.818760000000     0.847770000000     0.0446942  
H163     H      0.687490000000     0.667730000000     0.721130000000     0.0227951  
H164     H      0.563440000000     0.687130000000     0.773750000000     0.0430368  
H165     H      0.605400000000     0.653750000000     0.663400000000     0.0444594  
H166     H      0.579130000000     0.786520000000     0.736170000000     0.0447019  
H167     H      0.605610000000     0.702160000000     0.683370000000     0.0380213  
H168     H      0.456520000000     0.808210000000     0.789550000000     0.0424878  
H169     H      0.537820000000     0.770710000000     0.826860000000     0.0372232  
H170     H      0.489980000000     0.764570000000     0.793060000000     0.0369471  
H171     H      0.609440000000     0.746490000000     0.712770000000     0.0406457  
H172     H      0.652820000000     0.709650000000     0.717020000000     0.0430407  
H173     H      0.548040000000     0.834790000000     0.812550000000     0.0388595  
H174     H      0.665520000000     0.647980000000     0.767880000000     0.0629369  
H175     H      0.667520000000     0.620380000000     0.740150000000     0.0717368  
H176     H      0.627430000000     0.636070000000     0.749760000000     0.0719254  
H177     H      0.570780000000     0.042570000000     0.013550000000     0.0404246  
H178     H      0.566990000000     0.958770000000     0.937510000000     0.0350917  
H179     H      0.477980000000     0.967500000000     0.988560000000     0.0414433  
H180     H      0.663220000000     0.012750000000     0.084810000000     0.03729    
H181     H      0.521430000000     0.960820000000     0.902360000000     0.0333266  
H182     H      0.555960000000     0.020020000000     0.084270000000     0.0348799  
H183     H      0.645570000000     0.012710000000     0.033890000000     0.034832   
H184     H      0.585090000000     0.053720000000     0.119310000000     0.0431902  
H185     H      0.448370000000     0.932410000000     0.954550000000     0.0238085  
H186     H      0.537770000000     0.022220000000     0.972750000000     0.0427241  
H187     H      0.537420000000     0.924750000000     0.903210000000     0.0445035  
H188     H      0.585640000000     0.957400000000     0.048970000000     0.0446782  
H189     H      0.549430000000     0.927640000000     0.955650000000     0.0385849  
H190     H      0.675130000000     0.046540000000     0.068680000000     0.0423388  
H191     H      0.573270000000     0.051580000000     0.066730000000     0.0373546  
H192     H      0.625390000000     0.047320000000     0.037400000000     0.0369574  
H193     H      0.552600000000     0.937050000000     0.008240000000     0.0408134  
H194     H      0.497560000000     0.932850000000     0.985020000000     0.0437564  
H195     H      0.601380000000     0.017680000000     0.119530000000     0.0378201  
H196     H      0.437620000000     0.984430000000     0.950540000000     0.0625509  
H197     H      0.437050000000     0.968070000000     0.914600000000     0.069348   
H198     H      0.473110000000     0.988920000000     0.926020000000     0.0705919  
H199     H      0.004360000000     0.759060000000     0.230210000000     0.0401332  
H200     H      0.105040000000     0.726490000000     0.169100000000     0.0350965  
H201     H      0.033880000000     0.659040000000     0.179770000000     0.0415773  
H202     H      0.051920000000     0.772580000000     0.334260000000     0.0380872  
H203     H      0.093800000000     0.707120000000     0.120400000000     0.0339532  
H204     H      0.983150000000     0.719670000000     0.289210000000     0.0346983  
H205     H      0.067390000000     0.775560000000     0.282550000000     0.0351277  
H206     H      0.956930000000     0.752140000000     0.327100000000     0.0432701  
H207     H      0.066120000000     0.628950000000     0.142910000000     0.0247018  
H208     H      0.021310000000     0.737010000000     0.183280000000     0.0428248  
H209     H      0.135980000000     0.698010000000     0.131050000000     0.0433709  
H210     H      0.072310000000     0.702740000000     0.276830000000     0.0446024  
H211     H      0.119310000000     0.692050000000     0.182600000000     0.0388818  
H212     H      0.042650000000     0.808070000000     0.320740000000     0.045648   
H213     H      0.976540000000     0.755960000000     0.276250000000     0.0366986  
H214     H      0.026330000000     0.788990000000     0.272410000000     0.0376401  
H215     H      0.089960000000     0.681280000000     0.229890000000     0.0406953  
H216     H      0.077240000000     0.652370000000     0.188760000000     0.0433408  
H217     H      0.996010000000     0.736210000000     0.338640000000     0.0372019  
H218     H      0.014450000000     0.653330000000     0.127580000000     0.0632431  
H219     H      0.044690000000     0.654310000000     0.098030000000     0.0726386  
H220     H      0.036970000000     0.686200000000     0.119740000000     0.0720557  
H221     H      0.345440000000     0.724680000000     0.932560000000     0.0404116  
H222     H      0.310710000000     0.674010000000     0.030730000000     0.0351053  
H223     H      0.228530000000     0.699550000000     0.976890000000     0.0413751  
H224     H      0.396260000000     0.820990000000     0.963910000000     0.0387517  
H225     H      0.275870000000     0.631710000000     0.025300000000     0.0341565  
H226     H      0.306940000000     0.788670000000     0.921990000000     0.0351096  
H227     H      0.391470000000     0.770710000000     0.976060000000     0.0349486  
H228     H      0.343130000000     0.819760000000     0.889320000000     0.0446022  
H229     H      0.189060000000     0.670940000000     0.009440000000     0.0234611  
H230     H      0.312940000000     0.684720000000     0.953780000000     0.0427844  
H231     H      0.271860000000     0.644630000000     0.062400000000     0.0427637  
H232     H      0.307910000000     0.781240000000     0.000390000000     0.0449069  
H233     H      0.276720000000     0.694530000000     0.046680000000     0.0385527  
H234     H      0.427810000000     0.801900000000     0.943430000000     0.0422925  
H235     H      0.342940000000     0.770380000000     0.906570000000     0.0370561  
H236     H      0.391780000000     0.759970000000     0.937850000000     0.0368764  
H237     H      0.275760000000     0.741260000000     0.021810000000     0.0408338  
H238     H      0.228820000000     0.709070000000     0.015250000000     0.0439331  
H239     H      0.336720000000     0.833580000000     0.925820000000     0.0388555  
H240     H      0.206440000000     0.651980000000     0.961160000000     0.0616138  
H241     H      0.202670000000     0.623120000000     0.987400000000     0.0688691  
H242     H      0.243840000000     0.636060000000     0.976940000000     0.0713651  
H243     H      0.308900000000     0.524750000000     0.179730000000     0.0408696  
H244     H      0.362250000000     0.511980000000     0.283730000000     0.0348217  
H245     H      0.335340000000     0.433590000000     0.241970000000     0.041493   
H246     H      0.200740000000     0.579120000000     0.200420000000     0.0356133  
H247     H      0.412540000000     0.483010000000     0.285100000000     0.0341595  
H248     H      0.229450000000     0.495100000000     0.174700000000     0.0347977  
H249     H      0.258900000000     0.573390000000     0.215410000000     0.0349657  
H250     H      0.197000000000     0.522490000000     0.136420000000     0.0437027  
H251     H      0.368490000000     0.406190000000     0.280640000000     0.0245739  
H252     H      0.353870000000     0.499620000000     0.206540000000     0.0430347  
H253     H      0.395650000000     0.484790000000     0.321710000000     0.0420558  
H254     H      0.239860000000     0.506830000000     0.250830000000     0.0443549  
H255     H      0.338120000000     0.485460000000     0.303660000000     0.0375794  
H256     H      0.226740000000     0.601490000000     0.177490000000     0.0438505  
H257     H      0.255000000000     0.520190000000     0.154140000000     0.0381989  
H258     H      0.272310000000     0.566280000000     0.178090000000     0.038547   
H259     H      0.284810000000     0.481550000000     0.277560000000     0.0405395  
H260     H      0.323050000000     0.440060000000     0.279480000000     0.0435069  
H261     H      0.181040000000     0.526800000000     0.173230000000     0.0361206  
H262     H      0.391510000000     0.413310000000     0.230670000000     0.0634785  
H263     H      0.424690000000     0.414620000000     0.257640000000     0.0756742  
H264     H      0.409500000000     0.447520000000     0.241220000000     0.0723381  
H265     H      0.061980000000     0.273950000000     0.742680000000     0.0406051  
H266     H      0.162500000000     0.208290000000     0.712600000000     0.035172   
H267     H      0.081910000000     0.208840000000     0.650990000000     0.0415298  
H268     H      0.017520000000     0.228010000000     0.836440000000     0.0375207  
H269     H      0.186950000000     0.217270000000     0.664480000000     0.0329662  
H270     H      0.986640000000     0.237350000000     0.747910000000     0.0343237  
H271     H      0.068190000000     0.238010000000     0.808430000000     0.0352634  
H272     H      0.950030000000     0.262740000000     0.784690000000     0.0419415  
H273     H      0.117780000000     0.180930000000     0.615010000000     0.0259741  
H274     H      0.101630000000     0.263380000000     0.702520000000     0.0428862  
H275     H      0.199230000000     0.182140000000     0.676740000000     0.0439497  
H276     H      0.047690000000     0.183030000000     0.757020000000     0.0445175  
H277     H      0.144940000000     0.174400000000     0.700700000000     0.0393195  
H278     H      0.032430000000     0.263340000000     0.845850000000     0.0463932  
H279     H      0.003600000000     0.271500000000     0.759680000000     0.0372845  
H280     H      0.051680000000     0.271900000000     0.795420000000     0.0383     
H281     H      0.087190000000     0.172460000000     0.716840000000     0.0410059  
H282     H      0.097380000000     0.174930000000     0.664300000000     0.0444974  
H283     H      0.963450000000     0.227600000000     0.796350000000     0.0361394  
H284     H      0.110520000000     0.232750000000     0.608230000000     0.0626428  
H285     H      0.152930000000     0.222720000000     0.598700000000     0.0690192  
H286     H      0.144630000000     0.240670000000     0.633250000000     0.0713346  
H287     H      0.766850000000     0.171480000000     0.013700000000     0.0407095  
H288     H      0.803440000000     0.266680000000     0.963230000000     0.0351929  
H289     H      0.879960000000     0.202900000000     0.964720000000     0.0415249  
H290     H      0.748890000000     0.198950000000     0.121140000000     0.0365412  
H291     H      0.823100000000     0.262350000000     0.912970000000     0.0345775  
H292     H      0.817710000000     0.150510000000     0.070610000000     0.035066   
H293     H      0.743740000000     0.216450000000     0.070960000000     0.0348968  
H294     H      0.783160000000     0.121440000000     0.106120000000     0.0451242  
H295     H      0.914760000000     0.233030000000     0.929650000000     0.0233993  
H296     H      0.790990000000     0.191770000000     0.968380000000     0.043021   
H297     H      0.837130000000     0.296180000000     0.927500000000     0.0441404  
H298     H      0.831270000000     0.226270000000     0.065770000000     0.0445149  
H299     H      0.844860000000     0.275940000000     0.976570000000     0.0382914  
H300     H      0.708670000000     0.188250000000     0.106640000000     0.0444741  
H301     H      0.776030000000     0.142360000000     0.057120000000     0.0382952  
H302     H      0.732360000000     0.181260000000     0.057380000000     0.037978   
H303     H      0.855240000000     0.246690000000     0.020460000000     0.0406281  
H304     H      0.889400000000     0.238690000000     0.977130000000     0.0431858  
H305     H      0.797740000000     0.155090000000     0.120900000000     0.0372599  
H306     H      0.883710000000     0.190920000000     0.911370000000     0.0629777  
H307     H      0.883160000000     0.219160000000     0.884230000000     0.070788   
H308     H      0.846050000000     0.212120000000     0.906060000000     0.0719667  
H309     H      0.821710000000     0.472970000000     0.705760000000     0.0408377  
H310     H      0.912060000000     0.439490000000     0.784380000000     0.0348529  
H311     H      0.821360000000     0.391240000000     0.781190000000     0.0416521  
H312     H      0.783460000000     0.572120000000     0.737820000000     0.0371786  
H313     H      0.929030000000     0.389740000000     0.780040000000     0.0338737  
H314     H      0.745240000000     0.487110000000     0.740020000000     0.0347567  
H315     H      0.831670000000     0.540440000000     0.733230000000     0.0351493  
H316     H      0.712460000000     0.521130000000     0.708330000000     0.0434673  
H317     H      0.847550000000     0.353700000000     0.814320000000     0.0246934  
H318     H      0.854670000000     0.431640000000     0.723250000000     0.0429814  
H319     H      0.938680000000     0.401880000000     0.816610000000     0.0419352  
H320     H      0.803480000000     0.498640000000     0.795740000000     0.0443016  
H321     H      0.889190000000     0.432690000000     0.818030000000     0.0377222  
H322     H      0.799720000000     0.574920000000     0.700950000000     0.0451168  
H323     H      0.764030000000     0.492710000000     0.704240000000     0.038155   
H324     H      0.815000000000     0.524060000000     0.700240000000     0.0381793  
H325     H      0.836200000000     0.457200000000     0.813230000000     0.0405928  
H326     H      0.836520000000     0.404320000000     0.816000000000     0.0438085  
H327     H      0.726000000000     0.536520000000     0.742680000000     0.0357246  
H328     H      0.842650000000     0.344900000000     0.761060000000     0.0633153  
H329     H      0.881260000000     0.329730000000     0.774860000000     0.0742952  
H330     H      0.882220000000     0.362860000000     0.754110000000     0.0721965  
H331     H      0.027940000000     0.456060000000     0.931540000000     0.0408428  
H332     H      0.038660000000     0.529810000000     0.016060000000     0.0348839  
H333     H      0.132850000000     0.495450000000     0.989120000000     0.0413668  
H334     H      0.967530000000     0.369920000000     0.976600000000     0.0361244  
H335     H      0.075020000000     0.570620000000     0.006820000000     0.0336947  
H336     H      0.064330000000     0.391100000000     0.945260000000     0.0350841  
H337     H      0.971040000000     0.422030000000     0.978230000000     0.0348545  
H338     H      0.034270000000     0.353520000000     0.915640000000     0.0459937  
H339     H      0.162690000000     0.532620000000     0.020470000000     0.024516   
H340     H      0.056130000000     0.500660000000     0.946890000000     0.0428571  
H341     H      0.067840000000     0.567750000000     0.045750000000     0.0441453  
H342     H      0.046970000000     0.419180000000     0.017200000000     0.0444991  
H343     H      0.066920000000     0.515350000000     0.043480000000     0.0388065  
H344     H      0.939960000000     0.384710000000     0.949040000000     0.0434333  
H345     H      0.034210000000     0.405940000000     0.919620000000     0.0386865  
H346     H      0.979080000000     0.424250000000     0.939130000000     0.0383844  
H347     H      0.074720000000     0.463890000000     0.032680000000     0.040825   
H348     H      0.122000000000     0.495400000000     0.027560000000     0.0441282  
H349     H      0.029030000000     0.349560000000     0.954790000000     0.0365619  
H350     H      0.159400000000     0.538880000000     0.966820000000     0.0617709  
H351     H      0.155850000000     0.573210000000     0.984890000000     0.068478   
H352     H      0.118810000000     0.556200000000     0.969750000000     0.0712753  
In1      In     0.935560000000     0.315990000000     0.872410000000     2.39771    
In2      In     0.164370000000     0.608850000000     0.088940000000     2.40094    
In3      In     0.442040000000     0.873640000000     0.869390000000     2.40642    
In4      In     0.681200000000     0.102240000000     0.156390000000     2.39373    
In5      In     0.444560000000     0.400190000000     0.361000000000     2.39355    
In6      In     0.704500000000     0.600190000000     0.643610000000     2.3978     
In7      In     0.950180000000     0.842190000000     0.375410000000     2.40521    
In8      In     0.210490000000     0.121550000000     0.594260000000     2.4075     
N1       N      0.003180000000     0.905910000000     0.415500000000    -0.179681   
N2       N      0.040360000000     0.949170000000     0.444420000000    -0.11018    
N3       N      0.115700000000     0.017460000000     0.525420000000    -0.113492   
N4       N      0.154370000000     0.060120000000     0.553660000000    -0.16838    
N5       N      0.904610000000     0.805690000000     0.446580000000    -0.180592   
N6       N      0.869390000000     0.772320000000     0.488550000000    -0.110261   
N7       N      0.791260000000     0.685110000000     0.544930000000    -0.11346    
N8       N      0.755480000000     0.649960000000     0.584710000000    -0.168739   
N9       N      0.265760000000     0.168930000000     0.536160000000    -0.181163   
N10      N      0.298570000000     0.209950000000     0.500360000000    -0.110328   
N11      N      0.344910000000     0.314300000000     0.447890000000    -0.113801   
N12      N      0.381380000000     0.355080000000     0.414750000000    -0.169665   
N13      N      0.497900000000     0.461000000000     0.405370000000    -0.180187   
N14      N      0.539660000000     0.489080000000     0.446720000000    -0.110284   
N15      N      0.622350000000     0.512130000000     0.546860000000    -0.113807   
N16      N      0.658840000000     0.540580000000     0.591430000000    -0.168765   
N17      N      0.896770000000     0.881340000000     0.310060000000    -0.181544   
N18      N      0.854110000000     0.918860000000     0.278480000000    -0.11046    
N19      N      0.765060000000     0.010780000000     0.248900000000    -0.11374    
N20      N      0.727110000000     0.051920000000     0.217690000000    -0.168616   
N21      N      0.619290000000     0.154860000000     0.203270000000    -0.179635   
N22      N      0.584880000000     0.197790000000     0.235280000000    -0.110298   
N23      N      0.548200000000     0.301200000000     0.294970000000    -0.113674   
N24      N      0.512070000000     0.345450000000     0.323240000000    -0.170086   
N25      N      0.396620000000     0.934240000000     0.818330000000    -0.180399   
N26      N      0.363610000000     0.973290000000     0.780510000000    -0.110316   
N27      N      0.289320000000     0.026270000000     0.687560000000    -0.11348    
N28      N      0.256890000000     0.064800000000     0.648970000000    -0.168389   
N29      N      0.646700000000     0.653040000000     0.694150000000    -0.17995    
N30      N      0.606230000000     0.689670000000     0.728790000000    -0.110193   
N31      N      0.537070000000     0.784090000000     0.781680000000    -0.113395   
N32      N      0.497820000000     0.820550000000     0.817490000000    -0.16836    
N33      N      0.488750000000     0.931180000000     0.923200000000    -0.1806     
N34      N      0.523160000000     0.967220000000     0.963140000000    -0.110365   
N35      N      0.600070000000     0.012370000000     0.058720000000    -0.113513   
N36      N      0.633850000000     0.047870000000     0.099410000000    -0.170421   
N37      N      0.100050000000     0.663130000000     0.131230000000    -0.180242   
N38      N      0.066240000000     0.695360000000     0.174920000000    -0.110377   
N39      N      0.027890000000     0.744680000000     0.285180000000    -0.113802   
N40      N      0.999880000000     0.780520000000     0.328860000000    -0.168592   
N41      N      0.228830000000     0.651200000000     0.034270000000    -0.181162   
N42      N      0.272320000000     0.686150000000     0.000420000000    -0.110172   
N43      N      0.346480000000     0.780390000000     0.952560000000    -0.113386   
N44      N      0.385980000000     0.818040000000     0.918300000000    -0.16838    
N45      N      0.390480000000     0.444060000000     0.299510000000    -0.179706   
N46      N      0.350030000000     0.474460000000     0.259010000000    -0.110201   
N47      N      0.243920000000     0.532570000000     0.198590000000    -0.113723   
N48      N      0.205930000000     0.563660000000     0.156860000000    -0.170168   
N49      N      0.162380000000     0.183490000000     0.641710000000    -0.180118   
N50      N      0.121010000000     0.211980000000     0.683070000000    -0.110444   
N51      N      0.028770000000     0.234330000000     0.776820000000    -0.113819   
N52      N      0.987590000000     0.261530000000     0.819030000000    -0.16817    
N53      N      0.875390000000     0.263740000000     0.921810000000    -0.180942   
N54      N      0.838380000000     0.231930000000     0.963790000000    -0.110286   
N55      N      0.783910000000     0.186100000000     0.070370000000    -0.113771   
N56      N      0.745620000000     0.154560000000     0.111550000000    -0.168091   
N57      N      0.896890000000     0.372500000000     0.812790000000    -0.180683   
N58      N      0.866380000000     0.416150000000     0.778730000000    -0.110235   
N59      N      0.789590000000     0.512900000000     0.740310000000    -0.113767   
N60      N      0.752690000000     0.552240000000     0.705750000000    -0.168917   
N61      N      0.117450000000     0.555870000000     0.030670000000    -0.179236   
N62      N      0.084070000000     0.512160000000     0.998840000000    -0.110367   
N63      N      0.019620000000     0.407470000000     0.965080000000    -0.113807   
N64      N      0.985360000000     0.364540000000     0.933060000000    -0.168538   
O1       O      0.886240000000     0.305790000000     0.896440000000    -0.497814   
O2       O      0.925050000000     0.274470000000     0.897840000000    -0.513197   
O3       O      0.939120000000     0.356260000000     0.843580000000    -0.510827   
O4       O      0.936880000000     0.347270000000     0.911310000000    -0.507726   
O5       O      0.982070000000     0.289530000000     0.860730000000    -0.489433   
O6       O      0.983630000000     0.333240000000     0.893640000000    -0.493424   
O7       O      0.893570000000     0.332250000000     0.842400000000    -0.500199   
O8       O      0.940760000000     0.288510000000     0.830900000000    -0.507172   
O9       O      0.115260000000     0.618590000000     0.113140000000    -0.499066   
O10      O      0.149120000000     0.653270000000     0.105880000000    -0.505664   
O11      O      0.177730000000     0.566790000000     0.112530000000    -0.505823   
O12      O      0.164740000000     0.573440000000     0.054140000000    -0.503369   
O13      O      0.217200000000     0.623030000000     0.074960000000    -0.507321   
O14      O      0.117390000000     0.591430000000     0.066180000000    -0.495539   
O15      O      0.193460000000     0.605820000000     0.132390000000    -0.507274   
O16      O      0.175710000000     0.637670000000     0.049450000000    -0.511277   
O17      O      0.396520000000     0.900590000000     0.855720000000    -0.49796    
O18      O      0.441620000000     0.905440000000     0.831030000000    -0.508859   
O19      O      0.487960000000     0.899450000000     0.884130000000    -0.499012   
O20      O      0.435620000000     0.841510000000     0.907190000000    -0.507201   
O21      O      0.448510000000     0.844210000000     0.829350000000    -0.506678   
O22      O      0.393660000000     0.848930000000     0.879080000000    -0.499761   
O23      O      0.443150000000     0.903580000000     0.909340000000    -0.509743   
O24      O      0.489820000000     0.848510000000     0.858870000000    -0.499685   
O25      O      0.679880000000     0.074030000000     0.114990000000    -0.510711   
O26      O      0.634940000000     0.077750000000     0.139930000000    -0.506309   
O27      O      0.684130000000     0.062130000000     0.185170000000    -0.507592   
O28      O      0.731660000000     0.111580000000     0.133920000000    -0.492355   
O29      O      0.661880000000     0.121330000000     0.199550000000    -0.507103   
O30      O      0.694810000000     0.144700000000     0.133970000000    -0.501154   
O31      O      0.724180000000     0.092380000000     0.188310000000    -0.496048   
O32      O      0.639480000000     0.135930000000     0.159680000000    -0.491357   
O33      O      0.430870000000     0.379180000000     0.404990000000    -0.500846   
O34      O      0.395370000000     0.375950000000     0.370250000000    -0.504633   
O35      O      0.423100000000     0.441650000000     0.341530000000    -0.504292   
O36      O      0.449360000000     0.435360000000     0.395770000000    -0.498316   
O37      O      0.480690000000     0.361800000000     0.362630000000    -0.507435   
O38      O      0.492450000000     0.426030000000     0.369550000000    -0.507422   
O39      O      0.410570000000     0.402210000000     0.320460000000    -0.493133   
O40      O      0.475130000000     0.383650000000     0.321850000000    -0.505223   
O41      O      0.704610000000     0.567940000000     0.605470000000    -0.507643   
O42      O      0.659280000000     0.573110000000     0.629770000000    -0.49407    
O43      O      0.697030000000     0.631000000000     0.682380000000    -0.51032    
O44      O      0.750070000000     0.589950000000     0.672710000000    -0.493122   
O45      O      0.752250000000     0.613350000000     0.618930000000    -0.496012   
O46      O      0.707380000000     0.562550000000     0.675790000000    -0.510409   
O47      O      0.655570000000     0.624020000000     0.653630000000    -0.494485   
O48      O      0.707820000000     0.637600000000     0.610940000000    -0.509314   
O49      O      0.999270000000     0.862410000000     0.391230000000    -0.493616   
O50      O      0.953530000000     0.884020000000     0.401550000000    -0.508871   
O51      O      0.903390000000     0.846770000000     0.346160000000    -0.502114   
O52      O      0.996270000000     0.824940000000     0.351190000000    -0.496292   
O53      O      0.905090000000     0.835340000000     0.405790000000    -0.503486   
O54      O      0.953220000000     0.797900000000     0.353450000000    -0.506222   
O55      O      0.943800000000     0.875830000000     0.339250000000    -0.514501   
O56      O      0.950120000000     0.812560000000     0.415660000000    -0.510326   
O57      O      0.218730000000     0.142720000000     0.549280000000    -0.512215   
O58      O      0.257050000000     0.147650000000     0.581490000000    -0.504741   
O59      O      0.166960000000     0.152770000000     0.601960000000    -0.501204   
O60      O      0.160190000000     0.100840000000     0.582290000000    -0.495831   
O61      O      0.256370000000     0.095900000000     0.609330000000    -0.498426   
O62      O      0.204710000000     0.082720000000     0.563960000000    -0.507509   
O63      O      0.206720000000     0.152460000000     0.633290000000    -0.506504   
O64      O      0.211500000000     0.092470000000     0.634750000000    -0.506496   


