data_structure

_audit_creation_method RASPA-1.0
_audit_creation_date 2023-6-5
_audit_author_name 'Poobodin Mano'

_cell_length_a    54.6605
_cell_length_b    52.7968
_cell_length_c    29.7086
_cell_angle_alpha 89.7739
_cell_angle_beta  90.2262
_cell_angle_gamma 89.9998
_cell_volume      85734.7

_symmetry_cell_setting          triclinic
_symmetry_space_group_name_Hall 'P 1'
_symmetry_space_group_name_H-M  'P 1'
_symmetry_Int_Tables_number     1

_symmetry_equiv_pos_as_xyz 'x,y,z'

loop_
_atom_site_label
_atom_site_type_symbol
_atom_site_fract_x
_atom_site_fract_y
_atom_site_fract_z
_atom_site_charge
C1       C      0.347680000000     0.399180000000     0.999160000000     0.410389   
C2       C      0.323420000000     0.336390000000     0.931840000000     0.402046   
C3       C      0.395140000000     0.333250000000     0.023260000000     0.403966   
C4       C      0.326820000000     0.324830000000     0.078030000000     0.402834   
C5       C      0.316990000000     0.655630000000     0.984770000000     0.40175    
C6       C      0.331240000000     0.713390000000     0.103080000000     0.403561   
C7       C      0.384310000000     0.690050000000     0.006470000000     0.406071   
C8       C      0.312140000000     0.737210000000     0.972850000000     0.414466   
C9       C      0.643360000000     0.329010000000     0.021940000000     0.405529   
C10      C      0.699490000000     0.348980000000     0.906950000000     0.406323   
C11      C      0.677640000000     0.400900000000     0.006440000000     0.402778   
C12      C      0.720740000000     0.325600000000     0.039570000000     0.404052   
C13      C      0.689710000000     0.664240000000     0.998290000000     0.413566   
C14      C      0.701860000000     0.734820000000     0.915090000000     0.413291   
C15      C      0.635480000000     0.720550000000     0.001910000000     0.414477   
C16      C      0.709890000000     0.741640000000     0.055960000000     0.406565   
C17      C      0.801770000000     0.153670000000     0.523140000000     0.410843   
C18      C      0.800430000000     0.233950000000     0.542350000000     0.40443    
C19      C      0.871480000000     0.185250000000     0.510610000000     0.413652   
C20      C      0.822190000000     0.213490000000     0.409910000000     0.40391    
C21      C      0.904760000000     0.846320000000     0.475850000000     0.41352    
C22      C      0.842550000000     0.839400000000     0.576450000000     0.405879   
C23      C      0.855320000000     0.906220000000     0.485450000000     0.40684    
C24      C      0.826570000000     0.828880000000     0.439130000000     0.41446    
C25      C      0.154530000000     0.875720000000     0.506480000000     0.404616   
C26      C      0.222650000000     0.844530000000     0.448010000000     0.401222   
C27      C      0.215930000000     0.918300000000     0.536460000000     0.40301    
C28      C      0.222680000000     0.840760000000     0.583620000000     0.40575    
C29      C      0.122580000000     0.216820000000     0.499330000000     0.401197   
C30      C      0.195450000000     0.251500000000     0.559210000000     0.401189   
C31      C      0.191070000000     0.175180000000     0.527640000000     0.40703    
C32      C      0.179050000000     0.240250000000     0.418940000000     0.412895   
C33      C      0.239980000000     0.984710000000     0.525990000000    -0.0323786  
C34      C      0.191120000000     0.111400000000     0.575830000000    -0.0309152  
C35      C      0.221750000000     0.141570000000     0.515990000000    -0.0050902  
C36      C      0.193220000000     0.140030000000     0.582690000000    -0.00527425 
C37      C      0.233430000000     0.061490000000     0.576030000000    -0.0545313  
C38      C      0.197900000000     0.033770000000     0.529410000000    -0.0532994  
C39      C      0.214290000000     0.074260000000     0.554200000000     0.0615873  
C40      C      0.218470000000     0.112950000000     0.511230000000    -0.0307674  
C41      C      0.217000000000     0.021000000000     0.551370000000     0.0606148  
C42      C      0.214680000000     0.981540000000     0.593310000000    -0.0593031  
C43      C      0.234900000000     0.035090000000     0.574560000000    -0.0560497  
C44      C      0.219490000000     0.952460000000     0.592460000000     0.081903   
C45      C      0.235790000000     0.957380000000     0.511620000000    -0.000759779
C46      C      0.196560000000     0.060190000000     0.530530000000    -0.0564235  
C47      C      0.241770000000     0.945280000000     0.621510000000    -0.186312   
C48      C      0.968530000000     0.842720000000     0.507070000000    -0.0321062  
C49      C      0.094980000000     0.875500000000     0.448570000000    -0.0309384  
C50      C      0.113560000000     0.877330000000     0.540670000000    -0.00525357 
C51      C      0.119570000000     0.888300000000     0.458400000000    -0.00521596 
C52      C      0.034870000000     0.885960000000     0.485830000000    -0.0542979  
C53      C      0.024900000000     0.836200000000     0.459570000000    -0.0538562  
C54      C      0.054250000000     0.869100000000     0.478860000000     0.0615259  
C55      C      0.089410000000     0.864740000000     0.527650000000    -0.0306682  
C56      C      0.005500000000     0.852980000000     0.467020000000     0.0608587  
C57      C      0.966180000000     0.857700000000     0.429480000000    -0.0597098  
C58      C      0.010670000000     0.878030000000     0.480130000000    -0.0559856  
C59      C      0.941170000000     0.844700000000     0.422590000000     0.0825104  
C60      C      0.944000000000     0.829140000000     0.502440000000    -0.00521825 
C61      C      0.049100000000     0.844080000000     0.465530000000    -0.0564315  
C62      C      0.926440000000     0.859180000000     0.386420000000    -0.185084   
C63      C      0.814610000000     0.093680000000     0.560590000000    -0.0321288  
C64      C      0.826660000000     0.967020000000     0.460880000000    -0.0309513  
C65      C      0.868760000000     0.948360000000     0.511640000000    -0.00493815 
C66      C      0.841080000000     0.944140000000     0.443850000000    -0.00514027 
C67      C      0.840960000000     0.030100000000     0.481620000000    -0.0546292  
C68      C      0.799730000000     0.031590000000     0.537010000000    -0.0542881  
C69      C      0.831150000000     0.007450000000     0.498270000000     0.0612253  
C70      C      0.853360000000     0.971010000000     0.526470000000    -0.0307952  
C71      C      0.809570000000     0.054250000000     0.520410000000     0.0607202  
C72      C      0.788220000000     0.091580000000     0.493170000000    -0.0611608  
C73      C      0.830340000000     0.053340000000     0.492530000000    -0.0560756  
C74      C      0.774580000000     0.115500000000     0.508560000000     0.0849497  
C75      C      0.801280000000     0.117650000000     0.575990000000    -0.00533322 
C76      C      0.810380000000     0.008340000000     0.526160000000    -0.0565763  
C77      C      0.762160000000     0.129060000000     0.468650000000    -0.187742   
C78      C      0.932870000000     0.200410000000     0.546020000000    -0.0323454  
C79      C      0.061200000000     0.190150000000     0.476340000000    -0.0308987  
C80      C      0.082550000000     0.233570000000     0.522600000000    -0.00538381 
C81      C      0.085900000000     0.200520000000     0.460890000000    -0.0051311  
C82      C      0.002560000000     0.215740000000     0.480240000000    -0.0541214  
C83      C      0.991120000000     0.176200000000     0.539430000000    -0.0541034  
C84      C      0.021410000000     0.203100000000     0.503170000000     0.0613757  
C85      C      0.057990000000     0.221670000000     0.535350000000    -0.0307659  
C86      C      0.972290000000     0.188690000000     0.516180000000     0.060944   
C87      C      0.935420000000     0.171810000000     0.481920000000    -0.0595607  
C88      C      0.978180000000     0.208720000000     0.486690000000    -0.0561332  
C89      C      0.910190000000     0.160360000000     0.492890000000     0.081838   
C90      C      0.907830000000     0.189750000000     0.558850000000    -0.00522004 
C91      C      0.015500000000     0.183340000000     0.533190000000    -0.0564051  
C92      C      0.898300000000     0.150030000000     0.449620000000    -0.184018   
C93      C      0.745300000000     0.740820000000     0.822640000000    -0.0323357  
C94      C      0.801230000000     0.834790000000     0.671630000000    -0.0307724  
C95      C      0.842160000000     0.806120000000     0.635190000000    -0.0054874  
C96      C      0.822510000000     0.848620000000     0.649000000000    -0.00554845 
C97      C      0.795170000000     0.796420000000     0.765460000000    -0.0543324  
C98      C      0.751700000000     0.778420000000     0.727270000000    -0.054307   
C99      C      0.791300000000     0.798950000000     0.719030000000     0.0612688  
C100     C      0.820240000000     0.793670000000     0.658270000000    -0.0308145  
C101     C      0.755570000000     0.775900000000     0.773690000000     0.0607518  
C102     C      0.726140000000     0.781870000000     0.833380000000    -0.0592751  
C103     C      0.777490000000     0.785020000000     0.792700000000    -0.056253   
C104     C      0.703650000000     0.769770000000     0.856080000000     0.081803   
C105     C      0.723680000000     0.727240000000     0.844450000000    -0.00525315 
C106     C      0.769360000000     0.789850000000     0.700040000000    -0.0565436  
C107     C      0.692640000000     0.788790000000     0.889640000000    -0.183906   
C108     C      0.812500000000     0.793090000000     0.338330000000    -0.0319807  
C109     C      0.719900000000     0.775710000000     0.161570000000    -0.0306894  
C110     C      0.749440000000     0.752690000000     0.091160000000    -0.00519404 
C111     C      0.710560000000     0.775490000000     0.112990000000    -0.0053485  
C112     C      0.770180000000     0.802320000000     0.215090000000    -0.0543492  
C113     C      0.762170000000     0.767660000000     0.284920000000    -0.0543212  
C114     C      0.756490000000     0.780400000000     0.206770000000     0.0610642  
C115     C      0.757340000000     0.753770000000     0.140600000000    -0.0308253  
C116     C      0.775820000000     0.789600000000     0.293260000000     0.06073    
C117     C      0.776020000000     0.816700000000     0.358990000000    -0.0593085  
C118     C      0.779830000000     0.806950000000     0.257900000000    -0.0563655  
C119     C      0.784250000000     0.818010000000     0.408650000000     0.0820627  
C120     C      0.821750000000     0.793320000000     0.386890000000    -0.00539599 
C121     C      0.752570000000     0.763000000000     0.242080000000    -0.0564915  
C122     C      0.773600000000     0.842050000000     0.430350000000    -0.185036   
C123     C      0.737800000000     0.349900000000     0.802210000000    -0.0327574  
C124     C      0.752760000000     0.261780000000     0.612700000000    -0.0310196  
C125     C      0.802710000000     0.273660000000     0.585710000000    -0.00543392 
C126     C      0.761810000000     0.254180000000     0.565960000000    -0.00538217 
C127     C      0.745540000000     0.319300000000     0.667860000000    -0.0547042  
C128     C      0.745530000000     0.291680000000     0.748400000000    -0.0533358  
C129     C      0.755450000000     0.294850000000     0.668770000000     0.0615196  
C130     C      0.792230000000     0.280430000000     0.631780000000    -0.0306432  
C131     C      0.735630000000     0.316150000000     0.747480000000     0.0601805  
C132     C      0.698780000000     0.329650000000     0.785570000000    -0.0590746  
C133     C      0.735710000000     0.329940000000     0.706790000000    -0.0559601  
C134     C      0.688020000000     0.343590000000     0.827180000000     0.0816541  
C135     C      0.732010000000     0.354750000000     0.851590000000    -0.00026378 
C136     C      0.755420000000     0.281060000000     0.709470000000    -0.0567487  
C137     C      0.676010000000     0.368790000000     0.813500000000    -0.18638    
C138     C      0.775160000000     0.310980000000     0.112910000000    -0.0323529  
C139     C      0.796500000000     0.219990000000     0.296860000000    -0.0309065  
C140     C      0.832100000000     0.246260000000     0.353210000000    -0.00565767 
C141     C      0.812290000000     0.205000000000     0.330220000000    -0.00541767 
C142     C      0.808350000000     0.255780000000     0.202360000000    -0.0546417  
C143     C      0.762590000000     0.278500000000     0.214000000000    -0.0535156  
C144     C      0.797340000000     0.255280000000     0.244830000000     0.0612595  
C145     C      0.815650000000     0.259780000000     0.318890000000    -0.0308956  
C146     C      0.773610000000     0.279010000000     0.171510000000     0.0603203  
C147     C      0.751920000000     0.272250000000     0.101440000000    -0.0587915  
C148     C      0.796640000000     0.267470000000     0.165920000000    -0.0560992  
C149     C      0.740280000000     0.284850000000     0.058910000000     0.0810319  
C150     C      0.757960000000     0.327650000000     0.085240000000    -0.00095673 
C151     C      0.774270000000     0.266730000000     0.250430000000    -0.0565235  
C152     C      0.754240000000     0.277580000000     0.016090000000    -0.185509   
C153     C      0.676500000000     0.597410000000     0.970830000000    -0.0323412  
C154     C      0.690370000000     0.465390000000     0.045710000000    -0.0308116  
C155     C      0.658100000000     0.440620000000     0.981020000000    -0.00530114 
C156     C      0.681050000000     0.438550000000     0.055110000000    -0.00548994 
C157     C      0.662060000000     0.523910000000     0.030990000000    -0.0545722  
C158     C      0.705040000000     0.540000000000     0.988850000000    -0.0539946  
C159     C      0.678390000000     0.505890000000     0.014100000000     0.0613729  
C160     C      0.668350000000     0.467320000000     0.974360000000    -0.03087    
C161     C      0.688680000000     0.558020000000     0.005640000000     0.0604954  
C162     C      0.696880000000     0.597800000000     0.043200000000    -0.0588014  
C163     C      0.667060000000     0.549770000000     0.026830000000    -0.0560515  
C164     C      0.706800000000     0.624890000000     0.035810000000     0.0816984  
C165     C      0.685810000000     0.623850000000     0.959200000000    -0.00461858 
C166     C      0.700000000000     0.514130000000     0.992910000000    -0.0565992  
C167     C      0.707670000000     0.638480000000     0.081730000000    -0.184332   
C168     C      0.267180000000     0.757060000000     0.894260000000    -0.0323288  
C169     C      0.262720000000     0.824970000000     0.678380000000    -0.0308564  
C170     C      0.218520000000     0.804820000000     0.636490000000    -0.00519389 
C171     C      0.258920000000     0.827610000000     0.627590000000    -0.00488538 
C172     C      0.270090000000     0.774660000000     0.751000000000    -0.0541737  
C173     C      0.256790000000     0.807320000000     0.820640000000    -0.0542649  
C174     C      0.256590000000     0.796530000000     0.741110000000     0.0614107  
C175     C      0.223830000000     0.802910000000     0.686990000000    -0.0307499  
C176     C      0.270400000000     0.785520000000     0.830500000000     0.0611794  
C177     C      0.304450000000     0.781990000000     0.882400000000    -0.0606099  
C178     C      0.277000000000     0.769130000000     0.795270000000    -0.0562407  
C179     C      0.311000000000     0.779920000000     0.932690000000     0.0841405  
C180     C      0.273130000000     0.754420000000     0.944420000000    -0.00525842 
C181     C      0.249920000000     0.812880000000     0.776350000000    -0.056411   
C182     C      0.338750000000     0.783080000000     0.939630000000    -0.18689    
C183     C      0.331550000000     0.752650000000     0.208080000000    -0.032709   
C184     C      0.235050000000     0.793200000000     0.364060000000    -0.0311894  
C185     C      0.256850000000     0.840500000000     0.395690000000    -0.0044325  
C186     C      0.226610000000     0.803970000000     0.409120000000    -0.00406767 
C187     C      0.291510000000     0.770380000000     0.329090000000    -0.0544426  
C188     C      0.274220000000     0.774980000000     0.240720000000    -0.0533306  
C189     C      0.271560000000     0.786220000000     0.319880000000     0.0616691  
C190     C      0.263380000000     0.827570000000     0.351400000000    -0.0308293  
C191     C      0.294250000000     0.759210000000     0.249930000000     0.060602   
C192     C      0.302270000000     0.718240000000     0.216520000000    -0.0588417  
C193     C      0.302820000000     0.756960000000     0.294520000000    -0.056092   
C194     C      0.316730000000     0.703580000000     0.179780000000     0.081338   
C195     C      0.339820000000     0.744830000000     0.161210000000    -0.000343476
C196     C      0.262920000000     0.788450000000     0.275330000000    -0.0565843  
C197     C      0.336030000000     0.685990000000     0.200870000000    -0.186071   
C198     C      0.574690000000     0.703580000000     0.042850000000    -0.032536   
C199     C      0.446300000000     0.703360000000     0.969130000000    -0.0309639  
C200     C      0.422530000000     0.670800000000     0.035300000000    -0.00503798 
C201     C      0.421230000000     0.691850000000     0.958900000000    -0.0050472  
C202     C      0.504010000000     0.679430000000     0.989140000000    -0.0545629  
C203     C      0.515350000000     0.726040000000     0.028480000000    -0.0542957  
C204     C      0.485130000000     0.694860000000     0.005120000000     0.0611954  
C205     C      0.447610000000     0.682960000000     0.042970000000    -0.0310421  
C206     C      0.534210000000     0.710730000000     0.012100000000     0.0605934  
C207     C      0.569770000000     0.724080000000     0.970020000000    -0.0593096  
C208     C      0.528380000000     0.687220000000     0.992530000000    -0.0562939  
C209     C      0.594580000000     0.737710000000     0.974540000000     0.0819789  
C210     C      0.599440000000     0.716410000000     0.050260000000    -0.00480962 
C211     C      0.490990000000     0.718250000000     0.025100000000    -0.0566733  
C212     C      0.605220000000     0.742330000000     0.927220000000    -0.184166   
C213     C      0.208960000000     0.296180000000     0.654290000000    -0.0324896  
C214     C      0.309610000000     0.312030000000     0.816910000000    -0.030954   
C215     C      0.284320000000     0.337060000000     0.890830000000    -0.00465816 
C216     C      0.324520000000     0.327420000000     0.850830000000    -0.00473883 
C217     C      0.265130000000     0.328720000000     0.739120000000    -0.0545457  
C218     C      0.252170000000     0.277510000000     0.735510000000    -0.0533922  
C219     C      0.271650000000     0.312590000000     0.774710000000     0.0613703  
C220     C      0.271500000000     0.321170000000     0.854830000000    -0.0310486  
C221     C      0.245630000000     0.293670000000     0.699920000000     0.0603276  
C222     C      0.247520000000     0.282910000000     0.620860000000    -0.0588781  
C223     C      0.252250000000     0.319430000000     0.702000000000    -0.0560632  
C224     C      0.232720000000     0.275670000000     0.577800000000     0.0810829  
C225     C      0.193120000000     0.279520000000     0.624260000000    -0.000730067
C226     C      0.265080000000     0.286820000000     0.772680000000    -0.0565122  
C227     C      0.232540000000     0.297480000000     0.543380000000    -0.184878   
C228     C      0.207980000000     0.238430000000     0.311690000000    -0.0320807  
C229     C      0.288980000000     0.319790000000     0.179150000000    -0.0305557  
C230     C      0.311750000000     0.285740000000     0.114570000000    -0.00522845 
C231     C      0.312980000000     0.327350000000     0.156680000000    -0.00524883 
C232     C      0.272370000000     0.274140000000     0.253990000000    -0.0541918  
C233     C      0.223850000000     0.281270000000     0.226570000000    -0.0540957  
C234     C      0.267460000000     0.284310000000     0.211310000000     0.0614359  
C235     C      0.287900000000     0.279620000000     0.139250000000    -0.0308656  
C236     C      0.228770000000     0.271190000000     0.269320000000     0.0610191  
C237     C      0.207770000000     0.282260000000     0.338010000000    -0.059524   
C238     C      0.253260000000     0.267690000000     0.282930000000    -0.0562015  
C239     C      0.184190000000     0.277550000000     0.365070000000     0.0820555  
C240     C      0.184600000000     0.232760000000     0.337910000000    -0.00502732 
C241     C      0.242970000000     0.287910000000     0.197750000000    -0.0563884  
C242     C      0.182880000000     0.296160000000     0.404770000000    -0.183972   
C243     C      0.583930000000     0.318550000000     0.081910000000    -0.0323642  
C244     C      0.456920000000     0.308870000000     0.999800000000    -0.0307867  
C245     C      0.431490000000     0.334750000000     0.072470000000    -0.00526121 
C246     C      0.429470000000     0.304490000000     0.006500000000    -0.0054667  
C247     C      0.508390000000     0.296690000000     0.064340000000    -0.0544822  
C248     C      0.533070000000     0.333370000000     0.013770000000    -0.0533105  
C249     C      0.494960000000     0.314890000000     0.040340000000     0.0614678  
C250     C      0.458790000000     0.337910000000     0.063080000000    -0.0306705  
C251     C      0.546510000000     0.315380000000     0.038270000000     0.0606138  
C252     C      0.583470000000     0.295120000000     0.011830000000    -0.0584931  
C253     C      0.533940000000     0.296800000000     0.063290000000    -0.0560884  
C254     C      0.611960000000     0.295870000000     0.011800000000     0.0812649  
C255     C      0.610190000000     0.327920000000     0.076940000000    -0.000862947
C256     C      0.507510000000     0.333170000000     0.014620000000    -0.0564892  
C257     C      0.622800000000     0.271620000000     0.032410000000    -0.186543   
C258     C      0.323770000000     0.463980000000     0.015540000000    -0.031786   
C259     C      0.327780000000     0.595790000000     0.937300000000    -0.0304848  
C260     C      0.291040000000     0.617730000000     0.996310000000    -0.00578598 
C261     C      0.316730000000     0.621850000000     0.927190000000    -0.00583822 
C262     C      0.306290000000     0.534490000000     0.948790000000    -0.0545221  
C263     C      0.347450000000     0.524270000000     0.002110000000    -0.0539253  
C264     C      0.318990000000     0.554540000000     0.968910000000     0.0614755  
C265     C      0.302480000000     0.591730000000     0.005160000000    -0.0304471  
C266     C      0.334570000000     0.504200000000     0.982500000000     0.0607045  
C267     C      0.350510000000     0.465330000000     0.951000000000    -0.0584768  
C268     C      0.313980000000     0.509490000000     0.955370000000    -0.056092   
C269     C      0.362640000000     0.439790000000     0.963460000000     0.0809778  
C270     C      0.334790000000     0.439160000000     0.032200000000    -0.00522904 
C271     C      0.339830000000     0.549250000000     0.995390000000    -0.0564489  
C272     C      0.368700000000     0.425610000000     0.919490000000    -0.183333   
H1       H      0.181770000000     0.069610000000     0.512860000000     0.0414378  
H2       H      0.243680000000     0.996260000000     0.495310000000     0.0354843  
H3       H      0.195450000000     0.984720000000     0.604050000000     0.0440505  
H4       H      0.238890000000     0.145210000000     0.535180000000     0.03682    
H5       H      0.224860000000     0.957250000000     0.479920000000     0.0446996  
H6       H      0.187980000000     0.102290000000     0.609160000000     0.0351116  
H7       H      0.235510000000     0.104940000000     0.496610000000     0.0352436  
H8       H      0.175390000000     0.147370000000     0.594970000000     0.0434208  
H9       H      0.184120000000     0.023180000000     0.511160000000     0.0455539  
H10      H      0.253640000000     0.948310000000     0.503940000000     0.0356508  
H11      H      0.247320000000     0.072080000000     0.593980000000     0.0441772  
H12      H      0.256320000000     0.985940000000     0.548400000000     0.0339276  
H13      H      0.223890000000     0.150040000000     0.481900000000     0.045272   
H14      H      0.203400000000     0.943170000000     0.608470000000     0.0248995  
H15      H      0.175000000000     0.107460000000     0.553940000000     0.0382938  
H16      H      0.203090000000     0.109080000000     0.487530000000     0.0391018  
H17      H      0.249980000000     0.025680000000     0.591390000000     0.0393718  
H18      H      0.226400000000     0.990760000000     0.619270000000     0.0394964  
H19      H      0.207170000000     0.143650000000     0.609230000000     0.0363053  
H20      H      0.258660000000     0.954270000000     0.608310000000     0.066645   
H21      H      0.238980000000     0.951430000000     0.656840000000     0.0616871  
H22      H      0.244350000000     0.924410000000     0.621620000000     0.0763453  
H23      H      0.063710000000     0.830580000000     0.460490000000     0.0413397  
H24      H      0.979990000000     0.832060000000     0.531750000000     0.0356675  
H25      H      0.976170000000     0.858040000000     0.396870000000     0.0410842  
H26      H      0.109640000000     0.896760000000     0.553030000000     0.0369886  
H27      H      0.947540000000     0.809140000000     0.492790000000     0.0365014  
H28      H      0.086420000000     0.885060000000     0.418990000000     0.0351178  
H29      H      0.076700000000     0.866170000000     0.556720000000     0.0354889  
H30      H      0.132130000000     0.884830000000     0.429710000000     0.0435593  
H31      H      0.021190000000     0.816820000000     0.449870000000     0.0444701  
H32      H      0.935010000000     0.828870000000     0.535930000000     0.046425   
H33      H      0.038550000000     0.905170000000     0.496530000000     0.0445595  
H34      H      0.965410000000     0.862130000000     0.520460000000     0.0391646  
H35      H      0.121960000000     0.866460000000     0.568890000000     0.0459638  
H36      H      0.944990000000     0.825540000000     0.408780000000     0.0168605  
H37      H      0.098300000000     0.855320000000     0.439730000000     0.0382507  
H38      H      0.092690000000     0.844300000000     0.520750000000     0.0392059  
H39      H      0.996030000000     0.891300000000     0.486650000000     0.0405688  
H40      H      0.963220000000     0.877630000000     0.440360000000     0.0435459  
H41      H      0.116570000000     0.909080000000     0.460750000000     0.03666    
H42      H      0.920840000000     0.878140000000     0.398780000000     0.077804   
H43      H      0.937760000000     0.861990000000     0.355810000000     0.0599545  
H44      H      0.910260000000     0.848000000000     0.375640000000     0.0836731  
H45      H      0.802490000000     0.991120000000     0.539610000000     0.0408056  
H46      H      0.820530000000     0.082860000000     0.590940000000     0.0351981  
H47      H      0.775240000000     0.079040000000     0.474790000000     0.0414639  
H48      H      0.885040000000     0.955550000000     0.493260000000     0.0351085  
H49      H      0.785810000000     0.111930000000     0.598020000000     0.0341631  
H50      H      0.818960000000     0.977320000000     0.431290000000     0.0342337  
H51      H      0.865370000000     0.984270000000     0.545460000000     0.0349022  
H52      H      0.828260000000     0.930880000000     0.426870000000     0.0425069  
H53      H      0.783800000000     0.032000000000     0.558550000000     0.0437395  
H54      H      0.813960000000     0.129420000000     0.596440000000     0.0440063  
H55      H      0.856960000000     0.029710000000     0.460260000000     0.0437269  
H56      H      0.831210000000     0.099330000000     0.541420000000     0.0385951  
H57      H      0.875370000000     0.938060000000     0.542050000000     0.0441961  
H58      H      0.759530000000     0.108970000000     0.530980000000     0.0149383  
H59      H      0.811170000000     0.960210000000     0.481940000000     0.0379584  
H60      H      0.838680000000     0.964280000000     0.549500000000     0.039066   
H61      H      0.838370000000     0.070570000000     0.479350000000     0.0398663  
H62      H      0.803140000000     0.097150000000     0.469700000000     0.0450868  
H63      H      0.854490000000     0.950830000000     0.418390000000     0.0351042  
H64      H      0.775320000000     0.132900000000     0.441050000000     0.0851244  
H65      H      0.747490000000     0.116790000000     0.454690000000     0.0608365  
H66      H      0.753430000000     0.146920000000     0.479950000000     0.0814508  
H67      H      0.029700000000     0.173390000000     0.551570000000     0.0409784  
H68      H      0.942340000000     0.206660000000     0.577300000000     0.0356593  
H69      H      0.947030000000     0.157020000000     0.466000000000     0.040943   
H70      H      0.079020000000     0.250730000000     0.501750000000     0.0370455  
H71      H      0.910560000000     0.174420000000     0.584170000000     0.0363001  
H72      H      0.051750000000     0.181680000000     0.446750000000     0.0349232  
H73      H      0.046140000000     0.236700000000     0.549810000000     0.0352851  
H74      H      0.097620000000     0.184370000000     0.450450000000     0.0437535  
H75      H      0.986840000000     0.160880000000     0.562420000000     0.04423    
H76      H      0.897140000000     0.205050000000     0.575190000000     0.0468031  
H77      H      0.006840000000     0.231060000000     0.457230000000     0.0444782  
H78      H      0.930300000000     0.217230000000     0.523750000000     0.0391792  
H79      H      0.092040000000     0.239750000000     0.553870000000     0.0449758  
H80      H      0.913610000000     0.143750000000     0.515250000000     0.0157894  
H81      H      0.064330000000     0.174900000000     0.501720000000     0.0378285  
H82      H      0.061030000000     0.206920000000     0.561700000000     0.0382552  
H83      H      0.963980000000     0.218850000000     0.468640000000     0.0407382  
H84      H      0.933060000000     0.187650000000     0.457410000000     0.0438819  
H85      H      0.082910000000     0.212740000000     0.430800000000     0.0364466  
H86      H      0.893850000000     0.165620000000     0.425740000000     0.0789448  
H87      H      0.911100000000     0.136890000000     0.432480000000     0.0591999  
H88      H      0.881710000000     0.138780000000     0.457740000000     0.0786852  
H89      H      0.765880000000     0.791620000000     0.664280000000     0.0402814  
H90      H      0.753550000000     0.727930000000     0.797310000000     0.0352192  
H91      H      0.720330000000     0.799520000000     0.815630000000     0.0404439  
H92      H      0.857130000000     0.808190000000     0.660340000000     0.0377489  
H93      H      0.711010000000     0.720850000000     0.817390000000     0.0359395  
H94      H      0.793500000000     0.847360000000     0.697990000000     0.0344736  
H95      H      0.826550000000     0.775860000000     0.674780000000     0.0351915  
H96      H      0.815360000000     0.865770000000     0.631560000000     0.0434221  
H97      H      0.734900000000     0.771550000000     0.712220000000     0.0437611  
H98      H      0.730740000000     0.710030000000     0.861840000000     0.0448044  
H99      H      0.811940000000     0.803370000000     0.780530000000     0.0443707  
H100     H      0.759350000000     0.744930000000     0.848860000000     0.0380684  
H101     H      0.848800000000     0.793440000000     0.608060000000     0.0444745  
H102     H      0.689750000000     0.766790000000     0.829130000000     0.0159668  
H103     H      0.786700000000     0.831120000000     0.646090000000     0.0372107  
H104     H      0.806320000000     0.788690000000     0.632300000000     0.0375133  
H105     H      0.780910000000     0.783370000000     0.828490000000     0.0403823  
H106     H      0.739880000000     0.787100000000     0.859560000000     0.0432477  
H107     H      0.835520000000     0.854940000000     0.675540000000     0.037126   
H108     H      0.704580000000     0.790870000000     0.919750000000     0.0767286  
H109     H      0.690680000000     0.807740000000     0.873620000000     0.0588469  
H110     H      0.673880000000     0.782970000000     0.899490000000     0.0823483  
H111     H      0.742120000000     0.745880000000     0.236520000000     0.0404607  
H112     H      0.819250000000     0.775530000000     0.321890000000     0.0349587  
H113     H      0.755650000000     0.816450000000     0.357500000000     0.0406236  
H114     H      0.758300000000     0.768600000000     0.072770000000     0.0353663  
H115     H      0.815830000000     0.775470000000     0.403610000000     0.0352156  
H116     H      0.712450000000     0.792800000000     0.178550000000     0.0344227  
H117     H      0.777680000000     0.754590000000     0.142020000000     0.034651   
H118     H      0.690330000000     0.773320000000     0.113260000000     0.0434125  
H119     H      0.759010000000     0.754120000000     0.311750000000     0.0438609  
H120     H      0.842080000000     0.793340000000     0.386310000000     0.0447054  
H121     H      0.773380000000     0.815840000000     0.188230000000     0.0438956  
H122     H      0.820190000000     0.809700000000     0.319970000000     0.0383274  
H123     H      0.756140000000     0.734680000000     0.076340000000     0.0430153  
H124     H      0.775800000000     0.801510000000     0.426100000000     0.0153548  
H125     H      0.712870000000     0.758620000000     0.179430000000     0.037782   
H126     H      0.751300000000     0.736130000000     0.157980000000     0.0376816  
H127     H      0.790420000000     0.823980000000     0.263370000000     0.0403049  
H128     H      0.782530000000     0.833920000000     0.340800000000     0.0437021  
H129     H      0.714840000000     0.794090000000     0.097190000000     0.0351882  
H130     H      0.782520000000     0.859360000000     0.416740000000     0.0807576  
H131     H      0.753670000000     0.843440000000     0.423190000000     0.059494   
H132     H      0.775410000000     0.841170000000     0.467550000000     0.0809556  
H133     H      0.763070000000     0.262180000000     0.711140000000     0.0410678  
H134     H      0.758010000000     0.348160000000     0.798640000000     0.0348309  
H135     H      0.690320000000     0.310510000000     0.783630000000     0.0438251  
H136     H      0.801290000000     0.290570000000     0.563400000000     0.0372003  
H137     H      0.744610000000     0.343240000000     0.872930000000     0.0417576  
H138     H      0.732750000000     0.265490000000     0.610570000000     0.034679   
H139     H      0.801470000000     0.297930000000     0.643890000000     0.0351935  
H140     H      0.753120000000     0.235930000000     0.556350000000     0.0423797  
H141     H      0.745600000000     0.280860000000     0.779450000000     0.0447068  
H142     H      0.735620000000     0.374960000000     0.859680000000     0.0330138  
H143     H      0.745510000000     0.330150000000     0.636850000000     0.0441165  
H144     H      0.731640000000     0.366270000000     0.781280000000     0.0335737  
H145     H      0.822440000000     0.269020000000     0.589730000000     0.0458776  
H146     H      0.673070000000     0.331440000000     0.840690000000     0.0266621  
H147     H      0.755800000000     0.245720000000     0.636480000000     0.0378692  
H148     H      0.796350000000     0.264840000000     0.656010000000     0.0385652  
H149     H      0.728190000000     0.348890000000     0.705190000000     0.039226   
H150     H      0.693540000000     0.339640000000     0.753860000000     0.0395036  
H151     H      0.755780000000     0.268810000000     0.541280000000     0.0359807  
H152     H      0.689730000000     0.381900000000     0.798760000000     0.0663948  
H153     H      0.661240000000     0.365460000000     0.788400000000     0.0619798  
H154     H      0.667730000000     0.377990000000     0.843350000000     0.0768366  
H155     H      0.765290000000     0.266460000000     0.282830000000     0.0408428  
H156     H      0.784350000000     0.323020000000     0.138630000000     0.0354271  
H157     H      0.737760000000     0.260280000000     0.117930000000     0.0426172  
H158     H      0.850230000000     0.242860000000     0.337510000000     0.0358942  
H159     H      0.749110000000     0.341620000000     0.107940000000     0.0447147  
H160     H      0.792140000000     0.207520000000     0.267790000000     0.0342685  
H161     H      0.825510000000     0.276770000000     0.306110000000     0.035013   
H162     H      0.801390000000     0.188880000000     0.343590000000     0.0434072  
H163     H      0.744830000000     0.287150000000     0.218760000000     0.0451298  
H164     H      0.768680000000     0.338690000000     0.060210000000     0.0356488  
H165     H      0.826020000000     0.246950000000     0.197510000000     0.043874   
H166     H      0.789540000000     0.302890000000     0.090730000000     0.0337155  
H167     H      0.834950000000     0.258890000000     0.382630000000     0.0430722  
H168     H      0.721530000000     0.276840000000     0.055120000000     0.0238104  
H169     H      0.779010000000     0.225350000000     0.313430000000     0.0376854  
H170     H      0.798690000000     0.266230000000     0.336030000000     0.0377344  
H171     H      0.805480000000     0.267430000000     0.133380000000     0.0392578  
H172     H      0.766970000000     0.259150000000     0.091690000000     0.0393208  
H173     H      0.828200000000     0.197020000000     0.311840000000     0.0357737  
H174     H      0.773380000000     0.284610000000     0.017620000000     0.066485   
H175     H      0.754470000000     0.256670000000     0.012050000000     0.0611273  
H176     H      0.745170000000     0.285920000000     0.985970000000     0.0739505  
H177     H      0.712870000000     0.500610000000     0.979380000000     0.040796   
H178     H      0.674070000000     0.586700000000     0.938920000000     0.0348537  
H179     H      0.709910000000     0.587200000000     0.065220000000     0.0408396  
H180     H      0.639290000000     0.442150000000     0.994870000000     0.0370499  
H181     H      0.702290000000     0.621980000000     0.937620000000     0.0375863  
H182     H      0.693270000000     0.475100000000     0.078490000000     0.0352138  
H183     H      0.654940000000     0.478490000000     0.954130000000     0.0344621  
H184     H      0.695620000000     0.427730000000     0.072990000000     0.0459204  
H185     H      0.721680000000     0.546060000000     0.972350000000     0.0443596  
H186     H      0.671460000000     0.633510000000     0.938780000000     0.0438556  
H187     H      0.645340000000     0.517860000000     0.047220000000     0.0443103  
H188     H      0.658340000000     0.598950000000     0.987480000000     0.0370884  
H189     H      0.656760000000     0.431220000000     0.947670000000     0.0422367  
H190     H      0.725980000000     0.622980000000     0.023870000000     0.0176906  
H191     H      0.708300000000     0.464210000000     0.028170000000     0.0380865  
H192     H      0.685730000000     0.466180000000     0.955050000000     0.0373294  
H193     H      0.654040000000     0.563290000000     0.039910000000     0.0398867  
H194     H      0.678950000000     0.598740000000     0.060880000000     0.0426186  
H195     H      0.665020000000     0.439780000000     0.077920000000     0.0381069  
H196     H      0.689170000000     0.645190000000     0.091470000000     0.0756417  
H197     H      0.714440000000     0.625510000000     0.108570000000     0.0596588  
H198     H      0.720820000000     0.654490000000     0.080980000000     0.0845025  
H199     H      0.239600000000     0.829980000000     0.769570000000     0.0408617  
H200     H      0.246940000000     0.757240000000     0.890060000000     0.0356238  
H201     H      0.311340000000     0.800390000000     0.869030000000     0.0412594  
H202     H      0.223930000000     0.786710000000     0.620380000000     0.0371003  
H203     H      0.263930000000     0.770080000000     0.962700000000     0.0350239  
H204     H      0.282730000000     0.823840000000     0.685240000000     0.0343933  
H205     H      0.215040000000     0.785390000000     0.700200000000     0.0354862  
H206     H      0.267000000000     0.845870000000     0.616250000000     0.0427792  
H207     H      0.251660000000     0.820130000000     0.847390000000     0.0440885  
H208     H      0.265350000000     0.736290000000     0.956990000000     0.0445438  
H209     H      0.275420000000     0.761980000000     0.724200000000     0.0444925  
H210     H      0.274590000000     0.740310000000     0.876170000000     0.0391008  
H211     H      0.198490000000     0.807300000000     0.631400000000     0.0456199  
H212     H      0.302190000000     0.796360000000     0.949540000000     0.0155308  
H213     H      0.255420000000     0.842150000000     0.695340000000     0.037904   
H214     H      0.215510000000     0.819480000000     0.704240000000     0.0386941  
H215     H      0.287610000000     0.752220000000     0.801950000000     0.0410267  
H216     H      0.313590000000     0.766400000000     0.863700000000     0.0449997  
H217     H      0.268960000000     0.812060000000     0.610570000000     0.0360025  
H218     H      0.349110000000     0.768100000000     0.921730000000     0.0832522  
H219     H      0.344720000000     0.801670000000     0.925900000000     0.0606407  
H220     H      0.343360000000     0.783070000000     0.976070000000     0.0826966  
H221     H      0.247560000000     0.800630000000     0.267370000000     0.0411387  
H222     H      0.334200000000     0.773480000000     0.211520000000     0.0349085  
H223     H      0.282450000000     0.714040000000     0.212150000000     0.044188   
H224     H      0.271970000000     0.837280000000     0.420210000000     0.0388699  
H225     H      0.334730000000     0.760040000000     0.136860000000     0.0430843  
H226     H      0.232960000000     0.772240000000     0.365210000000     0.0351656  
H227     H      0.282620000000     0.832510000000     0.342900000000     0.035163   
H228     H      0.206400000000     0.801840000000     0.411560000000     0.0423445  
H229     H      0.267450000000     0.776910000000     0.206570000000     0.0455112  
H230     H      0.360100000000     0.743200000000     0.160570000000     0.0327371  
H231     H      0.298370000000     0.768540000000     0.363200000000     0.0444182  
H232     H      0.343060000000     0.743090000000     0.234070000000     0.0333821  
H233     H      0.255640000000     0.861290000000     0.389770000000     0.0441117  
H234     H      0.303400000000     0.691060000000     0.162180000000     0.0272469  
H235     H      0.223090000000     0.800620000000     0.336580000000     0.0371417  
H236     H      0.251340000000     0.834960000000     0.323990000000     0.0373182  
H237     H      0.318290000000     0.744940000000     0.302520000000     0.0392939  
H238     H      0.307320000000     0.711260000000     0.250760000000     0.0394904  
H239     H      0.234810000000     0.792480000000     0.436770000000     0.0380871  
H240     H      0.349840000000     0.697060000000     0.219980000000     0.0663771  
H241     H      0.327190000000     0.672190000000     0.223980000000     0.0620125  
H242     H      0.345550000000     0.675180000000     0.174140000000     0.0754199  
H243     H      0.476750000000     0.730550000000     0.037640000000     0.0405546  
H244     H      0.566030000000     0.700420000000     0.076250000000     0.0346817  
H245     H      0.557190000000     0.736060000000     0.949420000000     0.0405912  
H246     H      0.425310000000     0.651130000000     0.023050000000     0.0356     
H247     H      0.596540000000     0.733790000000     0.070620000000     0.0365341  
H248     H      0.456290000000     0.705770000000     0.936820000000     0.0345426  
H249     H      0.458590000000     0.670280000000     0.065220000000     0.0344228  
H250     H      0.410530000000     0.705440000000     0.938000000000     0.0443184  
H251     H      0.519570000000     0.744180000000     0.043510000000     0.0438566  
H252     H      0.611150000000     0.703360000000     0.070390000000     0.0433739  
H253     H      0.499770000000     0.661420000000     0.973620000000     0.0439765  
H254     H      0.577620000000     0.684810000000     0.026770000000     0.0373482  
H255     H      0.412740000000     0.669690000000     0.067980000000     0.0418574  
H256     H      0.590730000000     0.756660000000     0.989230000000     0.0161396  
H257     H      0.443710000000     0.722400000000     0.984380000000     0.0380496  
H258     H      0.445110000000     0.701380000000     0.060510000000     0.0376205  
H259     H      0.542610000000     0.675060000000     0.979510000000     0.040068   
H260     H      0.572380000000     0.705750000000     0.952170000000     0.0433807  
H261     H      0.423920000000     0.674360000000     0.938790000000     0.0365212  
H262     H      0.611490000000     0.724300000000     0.911940000000     0.0782331  
H263     H      0.591090000000     0.750700000000     0.904650000000     0.0590022  
H264     H      0.620340000000     0.756350000000     0.928560000000     0.0825586  
H265     H      0.269950000000     0.273970000000     0.799730000000     0.0411989  
H266     H      0.199180000000     0.299100000000     0.686680000000     0.0354282  
H267     H      0.262250000000     0.268610000000     0.625860000000     0.0435578  
H268     H      0.281600000000     0.357450000000     0.882720000000     0.0361682  
H269     H      0.184760000000     0.264270000000     0.645080000000     0.0441735  
H270     H      0.319260000000     0.312540000000     0.783980000000     0.0347634  
H271     H      0.252560000000     0.328540000000     0.850320000000     0.0349904  
H272     H      0.342060000000     0.317370000000     0.857530000000     0.0441054  
H273     H      0.247260000000     0.257660000000     0.734340000000     0.0454058  
H274     H      0.177790000000     0.290940000000     0.610100000000     0.0360804  
H275     H      0.270090000000     0.348570000000     0.740210000000     0.0438306  
H276     H      0.211620000000     0.315040000000     0.638120000000     0.0337679  
H277     H      0.275430000000     0.333350000000     0.923830000000     0.0429847  
H278     H      0.242640000000     0.259730000000     0.561510000000     0.0246323  
H279     H      0.308680000000     0.291930000000     0.828360000000     0.0377947  
H280     H      0.270260000000     0.301160000000     0.866600000000     0.0377657  
H281     H      0.247510000000     0.332310000000     0.674900000000     0.0391053  
H282     H      0.257000000000     0.301400000000     0.615900000000     0.0393614  
H283     H      0.329090000000     0.346060000000     0.835450000000     0.0362467  
H284     H      0.223250000000     0.314390000000     0.557410000000     0.065396   
H285     H      0.251550000000     0.302680000000     0.533990000000     0.0603947  
H286     H      0.222740000000     0.291660000000     0.512260000000     0.0735808  
H287     H      0.238660000000     0.296110000000     0.165240000000     0.0411763  
H288     H      0.208230000000     0.226330000000     0.281100000000     0.0358468  
H289     H      0.208050000000     0.302350000000     0.326380000000     0.0406991  
H290     H      0.327090000000     0.276080000000     0.132340000000     0.0364719  
H291     H      0.168700000000     0.235850000000     0.315070000000     0.0350381  
H292     H      0.288330000000     0.328780000000     0.212970000000     0.0349146  
H293     H      0.286590000000     0.258710000000     0.143550000000     0.0352705  
H294     H      0.312970000000     0.348200000000     0.151240000000     0.0465461  
H295     H      0.205110000000     0.284260000000     0.215810000000     0.0442108  
H296     H      0.184600000000     0.212440000000     0.347770000000     0.0467291  
H297     H      0.291110000000     0.271560000000     0.265060000000     0.0444711  
H298     H      0.224050000000     0.233380000000     0.333040000000     0.0402411  
H299     H      0.310700000000     0.277950000000     0.079890000000     0.0435555  
H300     H      0.168600000000     0.282190000000     0.342250000000     0.0157552  
H301     H      0.273350000000     0.327180000000     0.158810000000     0.039103   
H302     H      0.272180000000     0.286010000000     0.118150000000     0.0383267  
H303     H      0.257590000000     0.260220000000     0.315980000000     0.0409664  
H304     H      0.223990000000     0.279070000000     0.360160000000     0.0441048  
H305     H      0.328330000000     0.322740000000     0.179990000000     0.036994   
H306     H      0.197890000000     0.292620000000     0.429350000000     0.077051   
H307     H      0.184770000000     0.315930000000     0.392280000000     0.058825   
H308     H      0.164770000000     0.295000000000     0.421430000000     0.0799895  
H309     H      0.497570000000     0.347350000000     0.995550000000     0.0410605  
H310     H      0.573660000000     0.332350000000     0.102900000000     0.0352649  
H311     H      0.576920000000     0.296200000000     0.976350000000     0.0436012  
H312     H      0.429230000000     0.320750000000     0.100200000000     0.0362814  
H313     H      0.610060000000     0.349010000000     0.076060000000     0.0439981  
H314     H      0.464980000000     0.291400000000     0.985130000000     0.0349727  
H315     H      0.468270000000     0.342070000000     0.095450000000     0.0350831  
H316     H      0.420640000000     0.302200000000     0.972970000000     0.0445482  
H317     H      0.542490000000     0.347660000000     0.994150000000     0.0456561  
H318     H      0.621080000000     0.322200000000     0.106990000000     0.0325077  
H319     H      0.498980000000     0.282460000000     0.084120000000     0.0441284  
H320     H      0.583840000000     0.299940000000     0.099750000000     0.0330519  
H321     H      0.424060000000     0.353160000000     0.084300000000     0.0439191  
H322     H      0.617850000000     0.296280000000     0.975950000000     0.0273658  
H323     H      0.459620000000     0.324690000000     0.975420000000     0.0379903  
H324     H      0.461450000000     0.354380000000     0.040060000000     0.038067   
H325     H      0.543890000000     0.282550000000     0.082200000000     0.039272   
H326     H      0.576670000000     0.276750000000     0.025550000000     0.0393196  
H327     H      0.426910000000     0.286520000000     0.025540000000     0.0372879  
H328     H      0.617340000000     0.269660000000     0.068240000000     0.0662116  
H329     H      0.616360000000     0.254750000000     0.013520000000     0.0618205  
H330     H      0.643090000000     0.272170000000     0.030640000000     0.0751645  
H331     H      0.350040000000     0.564380000000     0.011180000000     0.0410902  
H332     H      0.317070000000     0.474720000000     0.045230000000     0.0354926  
H333     H      0.364080000000     0.477230000000     0.932700000000     0.0405906  
H334     H      0.273820000000     0.614990000000     0.976860000000     0.0364065  
H335     H      0.348490000000     0.443460000000     0.058890000000     0.0377007  
H336     H      0.332420000000     0.586560000000     0.904810000000     0.0347227  
H337     H      0.288680000000     0.579530000000     0.022120000000     0.0354885  
H338     H      0.330540000000     0.633820000000     0.909840000000     0.0438541  
H339     H      0.363320000000     0.520470000000     0.022990000000     0.0444991  
H340     H      0.319930000000     0.427940000000     0.048180000000     0.046891   
H341     H      0.290280000000     0.538270000000     0.928260000000     0.0442363  
H342     H      0.307810000000     0.459840000000     0.993300000000     0.0376485  
H343     H      0.286290000000     0.626720000000     0.028890000000     0.0463675  
H344     H      0.380260000000     0.444220000000     0.980600000000     0.0182751  
H345     H      0.344990000000     0.598370000000     0.956950000000     0.0384448  
H346     H      0.318370000000     0.594100000000     0.028350000000     0.0392311  
H347     H      0.303720000000     0.494330000000     0.939760000000     0.0401321  
H348     H      0.334710000000     0.461960000000     0.927930000000     0.0424116  
H349     H      0.300910000000     0.619310000000     0.903970000000     0.0358976  
H350     H      0.352170000000     0.416050000000     0.905810000000     0.0729272  
H351     H      0.375650000000     0.438910000000     0.893410000000     0.0593484  
H352     H      0.383620000000     0.411680000000     0.925030000000     0.0829445  
In1      In     0.348490000000     0.348060000000     0.007560000000     2.40851    
In2      In     0.336030000000     0.699280000000     0.016400000000     2.40913    
In3      In     0.685410000000     0.350880000000     0.993950000000     2.39877    
In4      In     0.684560000000     0.715240000000     0.993320000000     2.40909    
In5      In     0.823790000000     0.197080000000     0.496330000000     2.4036     
In6      In     0.857010000000     0.855270000000     0.494080000000     2.40798    
In7      In     0.203310000000     0.870040000000     0.517880000000     2.41284    
In8      In     0.171920000000     0.220240000000     0.501960000000     2.40796    
N1       N      0.222910000000     0.942500000000     0.546340000000    -0.177923   
N2       N      0.217970000000     0.993700000000     0.548970000000    -0.107958   
N3       N      0.213780000000     0.101580000000     0.555660000000    -0.11374    
N4       N      0.201050000000     0.152610000000     0.540770000000    -0.169735   
N5       N      0.928930000000     0.841270000000     0.467010000000    -0.180145   
N6       N      0.980750000000     0.843660000000     0.463100000000    -0.111      
N7       N      0.078880000000     0.877570000000     0.488020000000    -0.113626   
N8       N      0.129910000000     0.879200000000     0.501430000000    -0.16902    
N9       N      0.791680000000     0.130980000000     0.535990000000    -0.181166   
N10      N      0.798210000000     0.077920000000     0.532680000000    -0.111397   
N11      N      0.842900000000     0.983870000000     0.486760000000    -0.113927   
N12      N      0.854510000000     0.931970000000     0.481220000000    -0.169697   
N13      N      0.895500000000     0.179060000000     0.518850000000    -0.180639   
N14      N      0.947350000000     0.180720000000     0.523490000000    -0.11111    
N15      N      0.046360000000     0.210780000000     0.495140000000    -0.11357    
N16      N      0.097660000000     0.215830000000     0.496360000000    -0.168669   
N17      N      0.710240000000     0.744380000000     0.874910000000    -0.180755   
N18      N      0.736750000000     0.764200000000     0.800670000000    -0.111122   
N19      N      0.809940000000     0.810960000000     0.692080000000    -0.113807   
N20      N      0.835420000000     0.831440000000     0.618160000000    -0.169326   
N21      N      0.811370000000     0.815030000000     0.411670000000    -0.181209   
N22      N      0.785620000000     0.793590000000     0.337880000000    -0.11118    
N23      N      0.746820000000     0.776340000000     0.162080000000    -0.11386    
N24      N      0.722680000000     0.755370000000     0.086990000000    -0.170213   
N25      N      0.706470000000     0.348390000000     0.862840000000    -0.178637   
N26      N      0.725530000000     0.326480000000     0.788370000000    -0.108005   
N27      N      0.765700000000     0.284690000000     0.627930000000    -0.113798   
N28      N      0.788740000000     0.252740000000     0.565280000000    -0.169233   
N29      N      0.738890000000     0.312840000000     0.061890000000    -0.178074   
N30      N      0.760760000000     0.290910000000     0.134450000000    -0.107997   
N31      N      0.809860000000     0.242600000000     0.281400000000    -0.113869   
N32      N      0.821450000000     0.221660000000     0.366250000000    -0.169691   
N33      N      0.692570000000     0.638380000000     0.999930000000    -0.180125   
N34      N      0.694350000000     0.584570000000     0.000020000000    -0.110712   
N35      N      0.672320000000     0.479380000000     0.018370000000    -0.113708   
N36      N      0.673330000000     0.426100000000     0.013050000000    -0.168244   
N37      N      0.299820000000     0.756420000000     0.951290000000    -0.181774   
N38      N      0.277680000000     0.780780000000     0.876500000000    -0.111167   
N39      N      0.250430000000     0.801920000000     0.694780000000    -0.113724   
N40      N      0.232740000000     0.825590000000     0.616070000000    -0.169125   
N41      N      0.328770000000     0.720650000000     0.146910000000    -0.177797   
N42      N      0.305680000000     0.745870000000     0.213240000000    -0.107769   
N43      N      0.260740000000     0.800060000000     0.356530000000    -0.113174   
N44      N      0.233920000000     0.830680000000     0.415370000000    -0.168095   
N45      N      0.610690000000     0.723720000000     0.006890000000    -0.180768   
N46      N      0.559060000000     0.719910000000     0.014760000000    -0.111042   
N47      N      0.460150000000     0.686530000000     0.999600000000    -0.113857   
N48      N      0.408630000000     0.685100000000     0.001040000000    -0.169521   
N49      N      0.207180000000     0.267980000000     0.587370000000    -0.177461   
N50      N      0.232440000000     0.283390000000     0.661870000000    -0.108023   
N51      N      0.285030000000     0.323010000000     0.812310000000    -0.113569   
N52      N      0.310860000000     0.331900000000     0.892830000000    -0.168805   
N53      N      0.182580000000     0.250110000000     0.376610000000    -0.180637   
N54      N      0.208530000000     0.265370000000     0.298670000000    -0.11119    
N55      N      0.287750000000     0.292060000000     0.183530000000    -0.113677   
N56      N      0.316460000000     0.313240000000     0.114440000000    -0.168328   
N57      N      0.621990000000     0.318140000000     0.035920000000    -0.178018   
N58      N      0.572900000000     0.316420000000     0.036960000000    -0.10756    
N59      N      0.468610000000     0.314530000000     0.043310000000    -0.113708   
N60      N      0.418450000000     0.325350000000     0.032320000000    -0.169112   
N61      N      0.347170000000     0.425130000000     0.995740000000    -0.17962    
N62      N      0.342530000000     0.478610000000     0.991710000000    -0.110725   
N63      N      0.310120000000     0.580050000000     0.962370000000    -0.11419    
N64      N      0.308040000000     0.633110000000     0.969420000000    -0.16847    
O1       O      0.332080000000     0.313170000000     0.042300000000    -0.505515   
O2       O      0.332290000000     0.348030000000     0.077850000000    -0.497348   
O3       O      0.346450000000     0.335110000000     0.934400000000    -0.499352   
O4       O      0.334300000000     0.387150000000     0.026340000000    -0.499055   
O5       O      0.384780000000     0.350470000000     0.045440000000    -0.511381   
O6       O      0.361760000000     0.385300000000     0.976590000000    -0.515146   
O7       O      0.313000000000     0.343120000000     0.967700000000    -0.508869   
O8       O      0.382070000000     0.323570000000     0.992730000000    -0.498106   
O9       O      0.301380000000     0.718040000000     0.988730000000    -0.515517   
O10      O      0.334950000000     0.736970000000     0.978650000000    -0.508247   
O11      O      0.323380000000     0.692470000000     0.088520000000    -0.495606   
O12      O      0.311220000000     0.664670000000     0.022530000000    -0.492714   
O13      O      0.371770000000     0.701750000000     0.977310000000    -0.499232   
O14      O      0.332090000000     0.668750000000     0.962730000000    -0.509262   
O15      O      0.341720000000     0.727070000000     0.074040000000    -0.510781   
O16      O      0.372520000000     0.683040000000     0.040780000000    -0.512962   
O17      O      0.704180000000     0.314490000000     0.017510000000    -0.512393   
O18      O      0.719510000000     0.349470000000     0.038710000000    -0.493994   
O19      O      0.677790000000     0.344850000000     0.919250000000    -0.498687   
O20      O      0.654770000000     0.321650000000     0.987580000000    -0.496667   
O21      O      0.689310000000     0.387400000000     0.034350000000    -0.49125    
O22      O      0.653260000000     0.347210000000     0.042510000000    -0.509982   
O23      O      0.714180000000     0.354130000000     0.938520000000    -0.511001   
O24      O      0.669920000000     0.389190000000     0.972260000000    -0.509133   
O25      O      0.719890000000     0.725710000000     0.030400000000    -0.506801   
O26      O      0.687160000000     0.744150000000     0.050110000000    -0.508971   
O27      O      0.706440000000     0.712510000000     0.928070000000    -0.505951   
O28      O      0.678930000000     0.675320000000     0.966080000000    -0.508452   
O29      O      0.648830000000     0.711040000000     0.032390000000    -0.507869   
O30      O      0.697930000000     0.679070000000     0.027830000000    -0.511692   
O31      O      0.688690000000     0.747110000000     0.941910000000    -0.512018   
O32      O      0.647050000000     0.727110000000     0.967220000000    -0.511987   
O33      O      0.814350000000     0.192060000000     0.421920000000    -0.498647   
O34      O      0.830950000000     0.226670000000     0.441410000000    -0.510741   
O35      O      0.789140000000     0.216490000000     0.522150000000    -0.511671   
O36      O      0.797000000000     0.164480000000     0.486270000000    -0.501748   
O37      O      0.859390000000     0.177200000000     0.477440000000    -0.518848   
O38      O      0.817410000000     0.165110000000     0.546920000000    -0.511636   
O39      O      0.823400000000     0.232810000000     0.539290000000    -0.496862   
O40      O      0.859430000000     0.199540000000     0.536280000000    -0.497932   
O41      O      0.849250000000     0.824740000000     0.441750000000    -0.510119   
O42      O      0.819350000000     0.846500000000     0.464230000000    -0.512872   
O43      O      0.854340000000     0.825480000000     0.549810000000    -0.502534   
O44      O      0.895350000000     0.842360000000     0.513990000000    -0.50359    
O45      O      0.844300000000     0.891530000000     0.458760000000    -0.505952   
O46      O      0.889930000000     0.854930000000     0.447040000000    -0.511248   
O47      O      0.838040000000     0.861330000000     0.561600000000    -0.505644   
O48      O      0.867230000000     0.895210000000     0.516290000000    -0.507018   
O49      O      0.200800000000     0.838510000000     0.570520000000    -0.496898   
O50      O      0.234680000000     0.857880000000     0.563850000000    -0.511403   
O51      O      0.204910000000     0.836090000000     0.470650000000    -0.508052   
O52      O      0.169540000000     0.879150000000     0.474860000000    -0.509861   
O53      O      0.218900000000     0.908640000000     0.498040000000    -0.495671   
O54      O      0.164100000000     0.869250000000     0.543450000000    -0.502835   
O55      O      0.230090000000     0.866180000000     0.459700000000    -0.496745   
O56      O      0.206500000000     0.903690000000     0.565270000000    -0.510536   
O57      O      0.175140000000     0.253570000000     0.453250000000    -0.516938   
O58      O      0.179310000000     0.216740000000     0.426730000000    -0.498836   
O59      O      0.173260000000     0.245450000000     0.564180000000    -0.493553   
O60      O      0.133690000000     0.232040000000     0.524890000000    -0.49504    
O61      O      0.198520000000     0.187300000000     0.493720000000    -0.503035   
O62      O      0.136330000000     0.203110000000     0.475690000000    -0.509211   
O63      O      0.205780000000     0.241650000000     0.525600000000    -0.50884    
O64      O      0.173880000000     0.185710000000     0.548670000000    -0.513313   


