data_structure

_audit_creation_method RASPA-1.0
_audit_creation_date 2023-6-5
_audit_author_name 'Poobodin Mano'

_cell_length_a    51.8102
_cell_length_b    55.9161
_cell_length_c    28.5443
_cell_angle_alpha 89.7767
_cell_angle_beta  90.2233
_cell_angle_gamma 89.9997
_cell_volume      82692.3

_symmetry_cell_setting          triclinic
_symmetry_space_group_name_Hall 'P 1'
_symmetry_space_group_name_H-M  'P 1'
_symmetry_Int_Tables_number     1

_symmetry_equiv_pos_as_xyz 'x,y,z'

loop_
_atom_site_label
_atom_site_type_symbol
_atom_site_fract_x
_atom_site_fract_y
_atom_site_fract_z
_atom_site_charge
C1       C      0.343450000000     0.378240000000     0.998350000000     0.405799   
C2       C      0.352060000000     0.303780000000     0.979510000000     0.414296   
C3       C      0.422140000000     0.357280000000     0.005080000000     0.40392    
C4       C      0.377770000000     0.324890000000     0.113100000000     0.420173   
C5       C      0.335690000000     0.616440000000     0.963900000000     0.416554   
C6       C      0.340780000000     0.683100000000     0.046030000000     0.407591   
C7       C      0.411070000000     0.647680000000     0.982300000000     0.424539   
C8       C      0.350450000000     0.687290000000     0.898030000000     0.405749   
C9       C      0.684070000000     0.360680000000     0.021410000000     0.416013   
C10      C      0.751020000000     0.302780000000     0.006940000000     0.415875   
C11      C      0.762100000000     0.378180000000     0.024190000000     0.406953   
C12      C      0.723160000000     0.326240000000     0.135690000000     0.416863   
C13      C      0.753820000000     0.614690000000     0.032560000000     0.413432   
C14      C      0.748370000000     0.690270000000     0.012520000000     0.407605   
C15      C      0.676890000000     0.638170000000     0.034110000000     0.408953   
C16      C      0.721480000000     0.669040000000     0.145130000000     0.413559   
C17      C      0.858440000000     0.122090000000     0.549620000000     0.415715   
C18      C      0.844090000000     0.178560000000     0.635790000000     0.411845   
C19      C      0.903430000000     0.183810000000     0.508880000000     0.406807   
C20      C      0.823910000000     0.195870000000     0.493330000000     0.402691   
C21      C      0.903010000000     0.810130000000     0.514000000000     0.415893   
C22      C      0.845680000000     0.816340000000     0.644510000000     0.417421   
C23      C      0.857830000000     0.871320000000     0.551220000000     0.40091    
C24      C      0.823500000000     0.795650000000     0.506150000000     0.403037   
C25      C      0.164040000000     0.832320000000     0.460200000000     0.406097   
C26      C      0.239110000000     0.832190000000     0.384970000000     0.426818   
C27      C      0.216510000000     0.891460000000     0.483010000000     0.407947   
C28      C      0.239410000000     0.818670000000     0.533110000000     0.425481   
C29      C      0.165990000000     0.193780000000     0.491990000000     0.413968   
C30      C      0.235880000000     0.199340000000     0.599760000000     0.405653   
C31      C      0.222410000000     0.137620000000     0.531100000000     0.413277   
C32      C      0.238560000000     0.208720000000     0.446790000000     0.405166   
C33      C      0.215480000000     0.074580000000     0.575780000000    -0.0326135  
C34      C      0.233140000000     0.956050000000     0.470170000000    -0.0304437  
C35      C      0.204020000000     0.925010000000     0.533310000000    -0.00403555 
C36      C      0.239500000000     0.929370000000     0.471750000000    -0.0050661  
C37      C      0.237910000000     0.000670000000     0.554150000000    -0.0513984  
C38      C      0.206990000000     0.028430000000     0.494580000000    -0.0520291  
C39      C      0.222600000000     0.989450000000     0.520260000000     0.0631155  
C40      C      0.199500000000     0.951950000000     0.528280000000    -0.0309686  
C41      C      0.222650000000     0.039680000000     0.528010000000     0.0628163  
C42      C      0.248500000000     0.075020000000     0.515470000000    -0.0534488  
C43      C      0.237950000000     0.025530000000     0.558210000000    -0.0548483  
C44      C      0.250890000000     0.102560000000     0.521720000000     0.0952487  
C45      C      0.209090000000     0.101080000000     0.571280000000     0.00708055 
C46      C      0.206830000000     0.003490000000     0.490740000000    -0.0548044  
C47      C      0.961890000000     0.810380000000     0.437620000000    -0.0320117  
C48      C      0.100280000000     0.808520000000     0.495570000000    -0.0307856  
C49      C      0.122630000000     0.835600000000     0.418100000000    -0.00427839 
C50      C      0.128890000000     0.805400000000     0.484110000000    -0.00487432 
C51      C      0.044070000000     0.795970000000     0.435240000000    -0.0514742  
C52      C      0.018750000000     0.826870000000     0.496660000000    -0.051779   
C53      C      0.058290000000     0.813270000000     0.459520000000     0.0630861  
C54      C      0.094290000000     0.837300000000     0.432580000000    -0.0309768  
C55      C      0.004530000000     0.809510000000     0.472480000000     0.0630554  
C56      C      0.970390000000     0.785370000000     0.505340000000    -0.0534034  
C57      C      0.017430000000     0.794030000000     0.441570000000    -0.0547826  
C58      C      0.940930000000     0.783310000000     0.514570000000     0.0959825  
C59      C      0.933900000000     0.815640000000     0.450430000000     0.00642538 
C60      C      0.045410000000     0.828800000000     0.490340000000    -0.0546335  
C61      C      0.838070000000     0.058820000000     0.527580000000    -0.0314976  
C62      C      0.876350000000     0.934610000000     0.575840000000    -0.0301339  
C63      C      0.837210000000     0.908230000000     0.523240000000    -0.00475796 
C64      C      0.870680000000     0.908680000000     0.589490000000    -0.00548045 
C65      C      0.839020000000     0.985900000000     0.579320000000    -0.0518508  
C66      C      0.875210000000     0.007050000000     0.519670000000    -0.0517533  
C67      C      0.855190000000     0.971380000000     0.552470000000     0.0633872  
C68      C      0.844740000000     0.934200000000     0.513220000000    -0.0305512  
C69      C      0.859110000000     0.021600000000     0.546740000000     0.0624102  
C70      C      0.870190000000     0.057570000000     0.588510000000    -0.0554547  
C71      C      0.840880000000     0.010770000000     0.576600000000    -0.0541409  
C72      C      0.876690000000     0.084360000000     0.583680000000     0.0958896  
C73      C      0.843520000000     0.084880000000     0.515600000000    -0.00296366 
C74      C      0.873320000000     0.982130000000     0.522370000000    -0.0549913  
C75      C      0.101420000000     0.189840000000     0.431850000000    -0.0324396  
C76      C      0.968650000000     0.207750000000     0.512810000000    -0.030724   
C77      C      0.937840000000     0.178010000000     0.450220000000    -0.00481255 
C78      C      0.939730000000     0.212410000000     0.507230000000    -0.00489835 
C79      C      0.020840000000     0.210470000000     0.438660000000    -0.0518417  
C80      C      0.047250000000     0.181970000000     0.503810000000    -0.0516251  
C81      C      0.006850000000     0.196340000000     0.470180000000     0.0631887  
C82      C      0.966910000000     0.174580000000     0.457610000000    -0.0309553  
C83      C      0.061250000000     0.196310000000     0.472620000000     0.0627262  
C84      C      0.098700000000     0.219860000000     0.492780000000    -0.0532078  
C85      C      0.047790000000     0.210510000000     0.439720000000    -0.0547351  
C86      C      0.128680000000     0.221280000000     0.493980000000     0.0953117  
C87      C      0.129540000000     0.183500000000     0.441590000000     0.00686527 
C88      C      0.020260000000     0.181910000000     0.502700000000    -0.0548798  
C89      C      0.807570000000     0.810390000000     0.755640000000    -0.0322347  
C90      C      0.798120000000     0.720800000000     0.944110000000    -0.0311502  
C91      C      0.744440000000     0.728690000000     0.970260000000    -0.004573   
C92      C      0.788300000000     0.711950000000     0.991640000000    -0.00430686 
C93      C      0.803130000000     0.776950000000     0.891670000000    -0.0515831  
C94      C      0.805180000000     0.753490000000     0.805390000000    -0.0508685  
C95      C      0.794260000000     0.753370000000     0.888250000000     0.0636398  
C96      C      0.755810000000     0.736810000000     0.923500000000    -0.030763   
C97      C      0.813800000000     0.777170000000     0.808700000000     0.0631248  
C98      C      0.850610000000     0.794910000000     0.769790000000    -0.0533301  
C99      C      0.812820000000     0.788820000000     0.852340000000    -0.0545815  
C100     C      0.860380000000     0.808650000000     0.725760000000     0.0959763  
C101     C      0.812550000000     0.817490000000     0.704910000000     0.00704013 
C102     C      0.795460000000     0.741620000000     0.844740000000    -0.0544203  
C103     C      0.733670000000     0.676390000000     0.274060000000    -0.0316874  
C104     C      0.778610000000     0.779340000000     0.411830000000    -0.0305999  
C105     C      0.806460000000     0.755540000000     0.487780000000    -0.00553205 
C106     C      0.784220000000     0.792840000000     0.457270000000    -0.00539778 
C107     C      0.742990000000     0.728740000000     0.384490000000    -0.0514207  
C108     C      0.771300000000     0.726380000000     0.301410000000    -0.0512789  
C109     C      0.766800000000     0.740490000000     0.381520000000     0.0633835  
C110     C      0.800030000000     0.743500000000     0.441130000000    -0.0305021  
C111     C      0.747460000000     0.714670000000     0.304340000000     0.06302    
C112     C      0.714680000000     0.712910000000     0.243870000000    -0.0538094  
C113     C      0.733330000000     0.715920000000     0.346340000000    -0.0546074  
C114     C      0.704590000000     0.699170000000     0.200250000000     0.0959727  
C115     C      0.731750000000     0.662800000000     0.227910000000     0.00567444 
C116     C      0.780980000000     0.739180000000     0.339610000000    -0.0544652  
C117     C      0.758050000000     0.246670000000     0.936260000000    -0.0320677  
C118     C      0.845990000000     0.207480000000     0.750490000000    -0.0303294  
C119     C      0.810930000000     0.176900000000     0.697550000000    -0.00488467 
C120     C      0.856850000000     0.188890000000     0.716660000000    -0.0051569  
C121     C      0.809090000000     0.204320000000     0.851420000000    -0.0515689  
C122     C      0.795640000000     0.252150000000     0.835770000000    -0.051791   
C123     C      0.811880000000     0.214200000000     0.806590000000     0.0633554  
C124     C      0.801760000000     0.195930000000     0.732020000000    -0.0305393  
C125     C      0.792600000000     0.242190000000     0.880500000000     0.0629656  
C126     C      0.800780000000     0.261580000000     0.954790000000    -0.0535098  
C127     C      0.799570000000     0.218130000000     0.888170000000    -0.0546936  
C128     C      0.789140000000     0.276880000000     0.994940000000     0.0957829  
C129     C      0.743730000000     0.266090000000     0.962940000000     0.0065377  
C130     C      0.805210000000     0.238330000000     0.799000000000    -0.0547992  
C131     C      0.711830000000     0.284090000000     0.235990000000    -0.0305267  
C132     C      0.797870000000     0.247480000000     0.428270000000    -0.0308916  
C133     C      0.786830000000     0.196590000000     0.438840000000    -0.00565653 
C134     C      0.804210000000     0.234860000000     0.474500000000    -0.00508556 
C135     C      0.741900000000     0.260860000000     0.370170000000    -0.0510432  
C136     C      0.770680000000     0.266160000000     0.288090000000    -0.0514753  
C137     C      0.765960000000     0.249610000000     0.366570000000     0.0628471  
C138     C      0.780970000000     0.210870000000     0.394180000000    -0.030778   
C139     C      0.746560000000     0.277310000000     0.291590000000     0.0645594  
C140     C      0.737470000000     0.317300000000     0.263640000000    -0.0530897  
C141     C      0.732260000000     0.274690000000     0.333180000000    -0.0551239  
C142     C      0.729000000000     0.332640000000     0.220770000000     0.0969312  
C143     C      0.707050000000     0.294680000000     0.187330000000     0.00544905 
C144     C      0.780430000000     0.252490000000     0.325250000000    -0.0534257  
C145     C      0.794460000000     0.559390000000     0.043800000000    -0.0315546  
C146     C      0.769900000000     0.435220000000     0.972440000000    -0.0321894  
C147     C      0.794420000000     0.408430000000     0.048230000000    -0.00419545 
C148     C      0.776350000000     0.408680000000     0.966730000000    -0.00325483 
C149     C      0.804210000000     0.487120000000     0.992820000000    -0.0515679  
C150     C      0.758590000000     0.506930000000     0.027590000000    -0.0494977  
C151     C      0.784410000000     0.471990000000     0.008180000000     0.06449    
C152     C      0.787670000000     0.434990000000     0.052280000000    -0.0313164  
C153     C      0.778430000000     0.522060000000     0.012400000000     0.0631534  
C154     C      0.772890000000     0.558830000000     0.968520000000    -0.053712   
C155     C      0.801320000000     0.511950000000     0.994770000000    -0.053998   
C156     C      0.768010000000     0.586200000000     0.971780000000     0.0962486  
C157     C      0.784920000000     0.584250000000     0.057270000000     0.00565337 
C158     C      0.761460000000     0.482110000000     0.025530000000    -0.0542489  
C159     C      0.279810000000     0.806380000000     0.639750000000    -0.0319459  
C160     C      0.321900000000     0.705230000000     0.785020000000    -0.0306406  
C161     C      0.349980000000     0.727510000000     0.862170000000    -0.00471426 
C162     C      0.341160000000     0.690440000000     0.813590000000    -0.00512822 
C163     C      0.327870000000     0.754200000000     0.712190000000    -0.0516005  
C164     C      0.274520000000     0.760090000000     0.721360000000    -0.0515718  
C165     C      0.315260000000     0.744360000000     0.750990000000     0.0633099  
C166     C      0.330370000000     0.740800000000     0.831340000000    -0.0309416  
C167     C      0.287080000000     0.769590000000     0.682100000000     0.0628328  
C168     C      0.273010000000     0.768670000000     0.601570000000    -0.055952   
C169     C      0.314010000000     0.766750000000     0.678010000000    -0.0542354  
C170     C      0.254000000000     0.779240000000     0.565360000000     0.0976625  
C171     C      0.259870000000     0.819270000000     0.609600000000    -0.00131107 
C172     C      0.288430000000     0.747590000000     0.755660000000    -0.0546286  
C173     C      0.245290000000     0.796940000000     0.279530000000    -0.0319188  
C174     C      0.337920000000     0.726000000000     0.143850000000    -0.0306977  
C175     C      0.302580000000     0.695830000000     0.090550000000    -0.0049372  
C176     C      0.347840000000     0.702790000000     0.122100000000    -0.00474699 
C177     C      0.292580000000     0.738540000000     0.229000000000    -0.0505688  
C178     C      0.290810000000     0.785250000000     0.193710000000    -0.0520362  
C179     C      0.301110000000     0.743130000000     0.183370000000     0.0635466  
C180     C      0.294610000000     0.719320000000     0.113610000000    -0.0303462  
C181     C      0.282200000000     0.780640000000     0.239320000000     0.0637634  
C182     C      0.288680000000     0.804640000000     0.308680000000    -0.0574664  
C183     C      0.283220000000     0.757060000000     0.256880000000    -0.0541158  
C184     C      0.279660000000     0.827320000000     0.334350000000     0.0992426  
C185     C      0.235110000000     0.819470000000     0.303220000000    -0.00518851 
C186     C      0.300220000000     0.766700000000     0.165850000000    -0.054355   
C187     C      0.481910000000     0.645220000000     0.955580000000    -0.0319062  
C188     C      0.609910000000     0.621420000000     0.056800000000    -0.0311188  
C189     C      0.640870000000     0.637100000000     0.977300000000    -0.0043657  
C190     C      0.638330000000     0.614100000000     0.053560000000    -0.00439818 
C191     C      0.555860000000     0.612400000000     0.984520000000    -0.0517732  
C192     C      0.533150000000     0.650800000000     0.031400000000    -0.050707   
C193     C      0.571460000000     0.628240000000     0.009800000000     0.0639211  
C194     C      0.612470000000     0.643770000000     0.983460000000    -0.030797   
C195     C      0.517540000000     0.634990000000     0.006000000000     0.0627534  
C196     C      0.474880000000     0.619310000000     0.021550000000    -0.0553595  
C197     C      0.529160000000     0.615710000000     0.982380000000    -0.053902   
C198     C      0.445920000000     0.625570000000     0.024690000000     0.0961073  
C199     C      0.454750000000     0.655490000000     0.956540000000    -0.000602078
C200     C      0.559900000000     0.647590000000     0.033230000000    -0.054566   
C201     C      0.302300000000     0.262690000000     0.927620000000    -0.0321582  
C202     C      0.284820000000     0.219040000000     0.687080000000    -0.0301715  
C203     C      0.229370000000     0.210030000000     0.682350000000    -0.00461877 
C204     C      0.274350000000     0.201940000000     0.649950000000    -0.0052727  
C205     C      0.285800000000     0.217020000000     0.808390000000    -0.0513805  
C206     C      0.297450000000     0.265840000000     0.805440000000    -0.0514577  
C207     C      0.279750000000     0.230340000000     0.768200000000     0.0635081  
C208     C      0.242110000000     0.226750000000     0.717910000000    -0.0306212  
C209     C      0.303800000000     0.252450000000     0.845450000000     0.0628504  
C210     C      0.343370000000     0.255080000000     0.890270000000    -0.0537902  
C211     C      0.297680000000     0.227910000000     0.846780000000    -0.0545216  
C212     C      0.357540000000     0.267350000000     0.931820000000     0.0961907  
C213     C      0.312850000000     0.281230000000     0.961790000000     0.00666815 
C214     C      0.285460000000     0.254960000000     0.767090000000    -0.0547873  
C215     C      0.362200000000     0.278730000000     0.190350000000    -0.031199   
C216     C      0.273390000000     0.257220000000     0.386220000000    -0.0302563  
C217     C      0.258140000000     0.207860000000     0.368280000000    -0.00496034 
C218     C      0.249010000000     0.247200000000     0.409060000000    -0.00531654 
C219     C      0.291890000000     0.266450000000     0.270540000000    -0.0509865  
C220     C      0.342520000000     0.269540000000     0.304340000000    -0.0516014  
C221     C      0.298020000000     0.256650000000     0.314390000000     0.0638251  
C222     C      0.282200000000     0.219500000000     0.347290000000    -0.0304731  
C223     C      0.336340000000     0.279520000000     0.260650000000     0.0640827  
C224     C      0.350610000000     0.317010000000     0.226700000000    -0.0574382  
C225     C      0.310830000000     0.277760000000     0.243730000000    -0.0537956  
C226     C      0.373570000000     0.329220000000     0.202360000000     0.0990873  
C227     C      0.385090000000     0.290590000000     0.165600000000    -0.00734599 
C228     C      0.323590000000     0.258110000000     0.331060000000    -0.0541274  
C229     C      0.622200000000     0.371820000000     0.955850000000    -0.0317955  
C230     C      0.487240000000     0.378380000000     0.032270000000    -0.0305285  
C231     C      0.459490000000     0.359150000000     0.951690000000    -0.0052767  
C232     C      0.458500000000     0.383740000000     0.025870000000    -0.00566136 
C233     C      0.542020000000     0.392000000000     0.969800000000    -0.0513749  
C234     C      0.566570000000     0.354330000000     0.016860000000    -0.0510092  
C235     C      0.527170000000     0.373760000000     0.989870000000     0.0635827  
C236     C      0.488250000000     0.354770000000     0.960710000000    -0.0306764  
C237     C      0.581430000000     0.372570000000     0.996760000000     0.0635572  
C238     C      0.619180000000     0.390590000000     0.031900000000    -0.0530465  
C239     C      0.568920000000     0.391510000000     0.973190000000    -0.0545738  
C240     C      0.649050000000     0.389570000000     0.037040000000     0.0955969  
C241     C      0.649930000000     0.363270000000     0.962440000000     0.00636628 
C242     C      0.539650000000     0.354850000000     0.013580000000    -0.0541798  
C243     C      0.316420000000     0.556250000000     0.917760000000    -0.0311061  
C244     C      0.315490000000     0.435530000000     0.020270000000    -0.0305558  
C245     C      0.329250000000     0.407460000000     0.938230000000    -0.00515798 
C246     C      0.310660000000     0.408520000000     0.019310000000    -0.00561121 
C247     C      0.294650000000     0.484280000000     0.955310000000    -0.0509088  
C248     C      0.338990000000     0.508380000000     0.985380000000    -0.0511277  
C249     C      0.315810000000     0.471160000000     0.971980000000     0.063326   
C250     C      0.333620000000     0.434470000000     0.941150000000    -0.0307224  
C251     C      0.317930000000     0.521490000000     0.968230000000     0.0647479  
C252     C      0.302280000000     0.559220000000     0.998240000000    -0.0529236  
C253     C      0.295590000000     0.509240000000     0.953470000000    -0.0549635  
C254     C      0.304680000000     0.586910000000     0.995540000000     0.0968903  
C255     C      0.326910000000     0.581680000000     0.914980000000     0.00648065 
C256     C      0.338020000000     0.483430000000     0.987350000000    -0.0532029  
H1       H      0.194690000000     0.995200000000     0.464460000000     0.0433715  
H2       H      0.197960000000     0.065080000000     0.588570000000     0.0389794  
H3       H      0.251520000000     0.070670000000     0.477860000000     0.0486882  
H4       H      0.215210000000     0.921640000000     0.566000000000     0.0427362  
H5       H      0.189140000000     0.103000000000     0.557150000000     0.0439406  
H6       H      0.250970000000     0.965990000000     0.460510000000     0.0399511  
H7       H      0.192090000000     0.958830000000     0.562210000000     0.0379574  
H8       H      0.243610000000     0.923220000000     0.435520000000     0.0499357  
H9       H      0.195080000000     0.039050000000     0.471190000000     0.0486714  
H10      H      0.209130000000     0.109380000000     0.606630000000     0.0461195  
H11      H      0.250050000000     0.990070000000     0.577190000000     0.0492799  
H12      H      0.231070000000     0.071920000000     0.602240000000     0.0518908  
H13      H      0.185020000000     0.915960000000     0.537190000000     0.0445307  
H14      H      0.254860000000     0.109950000000     0.486100000000     0.0420355  
H15      H      0.218350000000     0.959400000000     0.442480000000     0.0397611  
H16      H      0.184530000000     0.955310000000     0.500910000000     0.0392249  
H17      H      0.250170000000     0.033720000000     0.584470000000     0.0475017  
H18      H      0.264360000000     0.065900000000     0.535020000000     0.0572772  
H19      H      0.257420000000     0.926780000000     0.492730000000     0.0452494  
H20      H      0.055980000000     0.842280000000     0.509610000000     0.0437123  
H21      H      0.969320000000     0.825520000000     0.416070000000     0.0387059  
H22      H      0.980760000000     0.784820000000     0.539570000000     0.0498532  
H23      H      0.124080000000     0.823610000000     0.387240000000     0.0422434  
H24      H      0.931650000000     0.835300000000     0.454880000000     0.0440917  
H25      H      0.093050000000     0.791490000000     0.511010000000     0.0397708  
H26      H      0.082580000000     0.841750000000     0.400950000000     0.0380762  
H27      H      0.139810000000     0.803100000000     0.517450000000     0.0485714  
H28      H      0.009110000000     0.838840000000     0.520660000000     0.0497089  
H29      H      0.921010000000     0.810400000000     0.420980000000     0.0463053  
H30      H      0.053730000000     0.783880000000     0.411510000000     0.0492647  
H31      H      0.962820000000     0.793910000000     0.415860000000     0.0495855  
H32      H      0.129350000000     0.853650000000     0.407040000000     0.0461121  
H33      H      0.938670000000     0.783570000000     0.553410000000     0.0439227  
H34      H      0.098110000000     0.822870000000     0.522220000000     0.0405074  
H35      H      0.092010000000     0.852070000000     0.458300000000     0.0396718  
H36      H      0.006950000000     0.780390000000     0.422580000000     0.0468865  
H37      H      0.977270000000     0.769600000000     0.485160000000     0.0581899  
H38      H      0.131280000000     0.788730000000     0.463450000000     0.0437731  
H39      H      0.886030000000     0.971270000000     0.501250000000     0.0435104  
H40      H      0.830660000000     0.049850000000     0.495460000000     0.0384582  
H41      H      0.887750000000     0.048100000000     0.601520000000     0.0522886  
H42      H      0.818540000000     0.908060000000     0.542320000000     0.0426914  
H43      H      0.854840000000     0.085590000000     0.482580000000     0.041764   
H44      H      0.883020000000     0.944280000000     0.607690000000     0.0404818  
H45      H      0.827680000000     0.943570000000     0.498040000000     0.0383333  
H46      H      0.889210000000     0.899680000000     0.598480000000     0.05122    
H47      H      0.889320000000     0.015090000000     0.496580000000     0.0480987  
H48      H      0.824750000000     0.093870000000     0.508360000000     0.049476   
H49      H      0.825000000000     0.977860000000     0.602590000000     0.0493696  
H50      H      0.822700000000     0.057950000000     0.554730000000     0.0426729  
H51      H      0.834060000000     0.898920000000     0.489320000000     0.0476231  
H52      H      0.896100000000     0.085420000000     0.567070000000     0.0355151  
H53      H      0.892240000000     0.935040000000     0.549670000000     0.0401293  
H54      H      0.860500000000     0.934630000000     0.486780000000     0.0397461  
H55      H      0.828180000000     0.021500000000     0.597960000000     0.0451255  
H56      H      0.854880000000     0.055170000000     0.615480000000     0.0583068  
H57      H      0.858580000000     0.908580000000     0.621590000000     0.0469315  
H58      H      0.009890000000     0.170860000000     0.527500000000     0.0450041  
H59      H      0.091750000000     0.173910000000     0.416400000000     0.0390097  
H60      H      0.091290000000     0.222850000000     0.528860000000     0.0485097  
H61      H      0.934800000000     0.188920000000     0.418020000000     0.0391863  
H62      H      0.130560000000     0.164630000000     0.454070000000     0.0442039  
H63      H      0.978340000000     0.225030000000     0.520860000000     0.0392375  
H64      H      0.975310000000     0.167360000000     0.424740000000     0.0383855  
H65      H      0.931930000000     0.218780000000     0.541190000000     0.0494692  
H66      H      0.057300000000     0.171000000000     0.529360000000     0.049299   
H67      H      0.140680000000     0.184370000000     0.408400000000     0.0464104  
H68      H      0.010780000000     0.221690000000     0.413560000000     0.0486806  
H69      H      0.100350000000     0.204620000000     0.405660000000     0.0510471  
H70      H      0.928750000000     0.160250000000     0.444490000000     0.0464105  
H71      H      0.134080000000     0.224100000000     0.531430000000     0.0416398  
H72      H      0.971810000000     0.195350000000     0.542930000000     0.0430076  
H73      H      0.970110000000     0.161230000000     0.486100000000     0.0420433  
H74      H      0.058110000000     0.221810000000     0.415270000000     0.046997   
H75      H      0.090770000000     0.234700000000     0.470860000000     0.0573582  
H76      H      0.936970000000     0.226940000000     0.480990000000     0.0396059  
H77      H      0.788650000000     0.723430000000     0.841140000000     0.0467028  
H78      H      0.786570000000     0.806630000000     0.759600000000     0.0391272  
H79      H      0.861730000000     0.777960000000     0.773320000000     0.0500512  
H80      H      0.744650000000     0.744100000000     0.994770000000     0.0410164  
H81      H      0.799710000000     0.806710000000     0.681820000000     0.0443574  
H82      H      0.818970000000     0.725280000000     0.947690000000     0.0411154  
H83      H      0.745290000000     0.753130000000     0.911680000000     0.0390031  
H84      H      0.798310000000     0.694950000000     0.000740000000     0.0518457  
H85      H      0.805780000000     0.744320000000     0.772070000000     0.0507284  
H86      H      0.807110000000     0.836540000000     0.699450000000     0.0462708  
H87      H      0.802250000000     0.786220000000     0.924860000000     0.0487958  
H88      H      0.812510000000     0.825540000000     0.779270000000     0.0507727  
H89      H      0.723980000000     0.723400000000     0.964640000000     0.0503565  
H90      H      0.875110000000     0.796850000000     0.709240000000     0.0430689  
H91      H      0.796160000000     0.706150000000     0.918010000000     0.0461834  
H92      H      0.752710000000     0.722550000000     0.896940000000     0.0434262  
H93      H      0.819290000000     0.807130000000     0.855890000000     0.0469374  
H94      H      0.854800000000     0.805450000000     0.801990000000     0.0576076  
H95      H      0.793480000000     0.725390000000     0.018710000000     0.0404954  
H96      H      0.799460000000     0.748060000000     0.336440000000     0.0451543  
H97      H      0.750010000000     0.668810000000     0.294800000000     0.0403296  
H98      H      0.719280000000     0.731610000000     0.233290000000     0.047853   
H99      H      0.791720000000     0.750150000000     0.513990000000     0.0418816  
H100     H      0.751550000000     0.657500000000     0.217020000000     0.0472216  
H101     H      0.760350000000     0.786440000000     0.396500000000     0.0388266  
H102     H      0.797690000000     0.723970000000     0.447510000000     0.0409191  
H103     H      0.787910000000     0.811950000000     0.448720000000     0.0489333  
H104     H      0.782380000000     0.725590000000     0.269350000000     0.0495413  
H105     H      0.720730000000     0.645960000000     0.233310000000     0.049893   
H106     H      0.731890000000     0.729570000000     0.416510000000     0.0490416  
H107     H      0.715690000000     0.673710000000     0.294720000000     0.0504231  
H108     H      0.825510000000     0.748890000000     0.500310000000     0.0534582  
H109     H      0.706530000000     0.711790000000     0.170100000000     0.0396664  
H110     H      0.794490000000     0.782800000000     0.386500000000     0.0414552  
H111     H      0.816430000000     0.746100000000     0.416510000000     0.0441833  
H112     H      0.714870000000     0.707030000000     0.349580000000     0.0470017  
H113     H      0.699250000000     0.714160000000     0.270830000000     0.0576138  
H114     H      0.766770000000     0.792030000000     0.479780000000     0.0411765  
H115     H      0.807200000000     0.246400000000     0.764680000000     0.0439126  
H116     H      0.745270000000     0.240150000000     0.907540000000     0.039487   
H117     H      0.817510000000     0.271370000000     0.939600000000     0.048109   
H118     H      0.811060000000     0.159280000000     0.715730000000     0.045297   
H119     H      0.731770000000     0.276510000000     0.937610000000     0.0465965  
H120     H      0.860140000000     0.210030000000     0.779490000000     0.039661   
H121     H      0.783120000000     0.189930000000     0.747350000000     0.0389394  
H122     H      0.874690000000     0.196150000000     0.700420000000     0.051013   
H123     H      0.790380000000     0.270620000000     0.829350000000     0.0491657  
H124     H      0.730130000000     0.257700000000     0.988190000000     0.0489843  
H125     H      0.814150000000     0.185790000000     0.857740000000     0.0496843  
H126     H      0.762180000000     0.231260000000     0.959970000000     0.0507006  
H127     H      0.796890000000     0.175820000000     0.668080000000     0.0479982  
H128     H      0.800300000000     0.293950000000     0.995250000000     0.0396442  
H129     H      0.843710000000     0.224850000000     0.731680000000     0.0409538  
H130     H      0.798320000000     0.212980000000     0.712690000000     0.0405836  
H131     H      0.797400000000     0.209980000000     0.922380000000     0.046945   
H132     H      0.808600000000     0.244480000000     0.969110000000     0.0572943  
H133     H      0.862260000000     0.172640000000     0.737010000000     0.0473061  
H134     H      0.799230000000     0.244280000000     0.321810000000     0.0449128  
H135     H      0.710730000000     0.264240000000     0.233560000000     0.0411956  
H136     H      0.757330000000     0.322750000000     0.274220000000     0.0498678  
H137     H      0.768770000000     0.194940000000     0.459500000000     0.0412792  
H138     H      0.714090000000     0.281700000000     0.160800000000     0.0511882  
H139     H      0.793490000000     0.266570000000     0.435910000000     0.0386845  
H140     H      0.763940000000     0.202690000000     0.376570000000     0.0392611  
H141     H      0.822220000000     0.242710000000     0.489170000000     0.0462139  
H142     H      0.782000000000     0.268210000000     0.256520000000     0.054396   
H143     H      0.685950000000     0.296730000000     0.181280000000     0.0491138  
H144     H      0.730690000000     0.259000000000     0.401910000000     0.0486088  
H145     H      0.696340000000     0.290070000000     0.260260000000     0.0484764  
H146     H      0.793000000000     0.178250000000     0.428930000000     0.0483299  
H147     H      0.746410000000     0.343020000000     0.210070000000     0.0440879  
H148     H      0.815050000000     0.246880000000     0.404940000000     0.0405703  
H149     H      0.797770000000     0.209530000000     0.370120000000     0.0405693  
H150     H      0.713720000000     0.283360000000     0.337070000000     0.0467353  
H151     H      0.724820000000     0.320940000000     0.294300000000     0.0582935  
H152     H      0.788380000000     0.238400000000     0.499740000000     0.0404642  
H153     H      0.745810000000     0.470830000000     0.037460000000     0.0513635  
H154     H      0.798220000000     0.549000000000     0.076510000000     0.0405127  
H155     H      0.756660000000     0.550520000000     0.948750000000     0.0490864  
H156     H      0.814770000000     0.406900000000     0.036390000000     0.041172   
H157     H      0.773890000000     0.582740000000     0.090550000000     0.0480723  
H158     H      0.771290000000     0.444050000000     0.937540000000     0.0415062  
H159     H      0.802080000000     0.443660000000     0.075710000000     0.0411719  
H160     H      0.761900000000     0.400260000000     0.943100000000     0.0504054  
H161     H      0.740860000000     0.514440000000     0.041070000000     0.0521601  
H162     H      0.801710000000     0.596070000000     0.064580000000     0.0499252  
H163     H      0.821930000000     0.479610000000     0.979270000000     0.049272   
H164     H      0.813050000000     0.560900000000     0.024520000000     0.0498228  
H165     H      0.792950000000     0.399840000000     0.083310000000     0.0531171  
H166     H      0.748460000000     0.589280000000     0.956400000000     0.0402301  
H167     H      0.749650000000     0.436910000000     0.984990000000     0.0504894  
H168     H      0.768280000000     0.436690000000     0.068620000000     0.0481734  
H169     H      0.816910000000     0.523240000000     0.982650000000     0.0469397  
H170     H      0.790710000000     0.555190000000     0.947990000000     0.0581468  
H171     H      0.795610000000     0.407210000000     0.949900000000     0.0399996  
H172     H      0.278230000000     0.740150000000     0.785360000000     0.0445678  
H173     H      0.280990000000     0.815640000000     0.674170000000     0.0388267  
H174     H      0.268000000000     0.749490000000     0.607070000000     0.0532033  
H175     H      0.369720000000     0.731700000000     0.849420000000     0.0411849  
H176     H      0.242170000000     0.822130000000     0.630810000000     0.0412399  
H177     H      0.321220000000     0.697920000000     0.748800000000     0.0401283  
H178     H      0.336050000000     0.759980000000     0.829570000000     0.0381564  
H179     H      0.333690000000     0.671860000000     0.816770000000     0.0509487  
H180     H      0.253840000000     0.762120000000     0.725020000000     0.0490835  
H181     H      0.267610000000     0.837290000000     0.600700000000     0.0490803  
H182     H      0.348490000000     0.751830000000     0.708150000000     0.0491287  
H183     H      0.299080000000     0.807680000000     0.622710000000     0.0447001  
H184     H      0.348430000000     0.734230000000     0.898670000000     0.0457164  
H185     H      0.234500000000     0.772300000000     0.574680000000     0.0365264  
H186     H      0.302350000000     0.703340000000     0.800700000000     0.0424095  
H187     H      0.310940000000     0.739660000000     0.847760000000     0.0405422  
H188     H      0.324260000000     0.773920000000     0.648120000000     0.0462065  
H189     H      0.292970000000     0.769240000000     0.587100000000     0.0599762  
H190     H      0.359680000000     0.689650000000     0.794120000000     0.0418065  
H191     H      0.306740000000     0.770730000000     0.130710000000     0.0437318  
H192     H      0.233590000000     0.793660000000     0.247400000000     0.0392471  
H193     H      0.309140000000     0.807170000000     0.297870000000     0.0558402  
H194     H      0.296710000000     0.680760000000     0.113710000000     0.0471412  
H195     H      0.235750000000     0.834430000000     0.277450000000     0.0399856  
H196     H      0.349440000000     0.729690000000     0.176020000000     0.040161   
H197     H      0.273860000000     0.718070000000     0.123250000000     0.0402031  
H198     H      0.367970000000     0.705680000000     0.109910000000     0.0482634  
H199     H      0.290200000000     0.803280000000     0.179770000000     0.0485266  
H200     H      0.214510000000     0.816460000000     0.312220000000     0.0501747  
H201     H      0.293180000000     0.720500000000     0.242940000000     0.0509958  
H202     H      0.242760000000     0.781440000000     0.303690000000     0.0463524  
H203     H      0.291870000000     0.693960000000     0.056920000000     0.052336   
H204     H      0.282690000000     0.842420000000     0.309370000000     0.0321068  
H205     H      0.340960000000     0.741020000000     0.118740000000     0.0408638  
H206     H      0.296850000000     0.734210000000     0.087910000000     0.0406534  
H207     H      0.276760000000     0.752980000000     0.292010000000     0.0488218  
H208     H      0.287890000000     0.789080000000     0.333140000000     0.0648369  
H209     H      0.348350000000     0.688700000000     0.149670000000     0.0444627  
H210     H      0.571550000000     0.660290000000     0.052490000000     0.0468976  
H211     H      0.494940000000     0.658900000000     0.939900000000     0.038669   
H212     H      0.481840000000     0.614320000000     0.057240000000     0.0529185  
H213     H      0.642040000000     0.621380000000     0.953670000000     0.0417719  
H214     H      0.455720000000     0.674080000000     0.970220000000     0.0420508  
H215     H      0.599230000000     0.607080000000     0.075690000000     0.0415769  
H216     H      0.603650000000     0.646070000000     0.948110000000     0.0391038  
H217     H      0.646670000000     0.613320000000     0.089480000000     0.0517343  
H218     H      0.524550000000     0.665830000000     0.049370000000     0.0499964  
H219     H      0.447490000000     0.656760000000     0.919860000000     0.0461378  
H220     H      0.564520000000     0.597590000000     0.965940000000     0.0491824  
H221     H      0.482280000000     0.629130000000     0.932650000000     0.0431303  
H222     H      0.651020000000     0.652250000000     0.959980000000     0.0503144  
H223     H      0.443330000000     0.635480000000     0.058190000000     0.0378094  
H224     H      0.608470000000     0.638180000000     0.077570000000     0.0462671  
H225     H      0.611140000000     0.661140000000     0.002280000000     0.043784   
H226     H      0.517670000000     0.603380000000     0.961930000000     0.0453199  
H227     H      0.477390000000     0.603290000000     0.998890000000     0.0579278  
H228     H      0.639370000000     0.595840000000     0.038430000000     0.0414477  
H229     H      0.280900000000     0.265650000000     0.736470000000     0.0444128  
H230     H      0.281480000000     0.266570000000     0.921260000000     0.0391483  
H231     H      0.354490000000     0.258460000000     0.857600000000     0.0487213  
H232     H      0.224960000000     0.192740000000     0.699970000000     0.0431613  
H233     H      0.302900000000     0.298570000000     0.955080000000     0.0444474  
H234     H      0.304830000000     0.213420000000     0.696270000000     0.0405414  
H235     H      0.230140000000     0.226890000000     0.750220000000     0.0391389  
H236     H      0.285510000000     0.204570000000     0.617120000000     0.0513974  
H237     H      0.302010000000     0.284730000000     0.803930000000     0.0491128  
H238     H      0.308020000000     0.275870000000     0.998280000000     0.0468441  
H239     H      0.281480000000     0.198080000000     0.809740000000     0.0499334  
H240     H      0.303690000000     0.244500000000     0.943470000000     0.0501992  
H241     H      0.210710000000     0.218020000000     0.670880000000     0.0490453  
H242     H      0.374160000000     0.277160000000     0.916090000000     0.0417363  
H243     H      0.285680000000     0.237450000000     0.672160000000     0.0411045  
H244     H      0.242560000000     0.245260000000     0.703390000000     0.0413971  
H245     H      0.302290000000     0.217150000000     0.877280000000     0.0470461  
H246     H      0.343210000000     0.235320000000     0.895430000000     0.0578617  
H247     H      0.277710000000     0.183250000000     0.661980000000     0.0477009  
H248     H      0.328860000000     0.250530000000     0.364710000000     0.0449356  
H249     H      0.367350000000     0.259800000000     0.198140000000     0.0418623  
H250     H      0.347260000000     0.325850000000     0.261020000000     0.0565326  
H251     H      0.242390000000     0.208370000000     0.341710000000     0.0430673  
H252     H      0.402420000000     0.288820000000     0.188480000000     0.0424161  
H253     H      0.270720000000     0.276790000000     0.380750000000     0.0408777  
H254     H      0.286130000000     0.210990000000     0.312850000000     0.0399129  
H255     H      0.247110000000     0.255000000000     0.444670000000     0.0519805  
H256     H      0.362070000000     0.270670000000     0.317700000000     0.0494807  
H257     H      0.389110000000     0.280760000000     0.132660000000     0.0560499  
H258     H      0.272330000000     0.265350000000     0.257200000000     0.0501144  
H259     H      0.345250000000     0.278850000000     0.166260000000     0.045507   
H260     H      0.262450000000     0.188770000000     0.376050000000     0.0508604  
H261     H      0.390320000000     0.326560000000     0.226450000000     0.0315964  
H262     H      0.290050000000     0.254530000000     0.410450000000     0.0418778  
H263     H      0.299040000000     0.216070000000     0.370750000000     0.0426711  
H264     H      0.305560000000     0.285170000000     0.209950000000     0.0466492  
H265     H      0.332960000000     0.319220000000     0.204730000000     0.0620668  
H266     H      0.231980000000     0.253050000000     0.388130000000     0.0469597  
H267     H      0.528610000000     0.340610000000     0.029650000000     0.0455187  
H268     H      0.612350000000     0.359600000000     0.930760000000     0.0396749  
H269     H      0.610420000000     0.388630000000     0.067270000000     0.0509993  
H270     H      0.457480000000     0.374170000000     0.926290000000     0.0409689  
H271     H      0.650230000000     0.343390000000     0.960210000000     0.0467794  
H272     H      0.496290000000     0.393670000000     0.051010000000     0.0407514  
H273     H      0.498040000000     0.352600000000     0.926350000000     0.039472   
H274     H      0.449300000000     0.384640000000     0.060950000000     0.0518945  
H275     H      0.575920000000     0.339710000000     0.035270000000     0.0509729  
H276     H      0.662050000000     0.370050000000     0.933190000000     0.0487176  
H277     H      0.532670000000     0.406690000000     0.951650000000     0.0490459  
H278     H      0.622140000000     0.390090000000     0.940160000000     0.0498887  
H279     H      0.451000000000     0.342930000000     0.935320000000     0.0503887  
H280     H      0.652970000000     0.385510000000     0.074690000000     0.0455277  
H281     H      0.489510000000     0.362060000000     0.054410000000     0.0431175  
H282     H      0.490580000000     0.337840000000     0.980970000000     0.0425755  
H283     H      0.579920000000     0.405900000000     0.957540000000     0.0468374  
H284     H      0.613070000000     0.408470000000     0.018480000000     0.0580911  
H285     H      0.456450000000     0.401610000000     0.009010000000     0.0413279  
H286     H      0.354620000000     0.473730000000     0.000510000000     0.0461264  
H287     H      0.327180000000     0.545010000000     0.892270000000     0.0405741  
H288     H      0.306880000000     0.553310000000     0.034630000000     0.0512365  
H289     H      0.310400000000     0.404250000000     0.920580000000     0.0397713  
H290     H      0.347940000000     0.580790000000     0.907270000000     0.0504931  
H291     H      0.300430000000     0.443990000000     0.042420000000     0.0415325  
H292     H      0.331860000000     0.442170000000     0.905270000000     0.038953   
H293     H      0.312780000000     0.401190000000     0.055370000000     0.054776   
H294     H      0.356270000000     0.517570000000     0.996940000000     0.0547254  
H295     H      0.317710000000     0.591300000000     0.885120000000     0.0497816  
H296     H      0.277440000000     0.475080000000     0.943460000000     0.0490459  
H297     H      0.295680000000     0.556070000000     0.907350000000     0.050141   
H298     H      0.344610000000     0.399360000000     0.916340000000     0.046965   
H299     H      0.312070000000     0.592710000000     0.030460000000     0.0436107  
H300     H      0.334690000000     0.438960000000     0.036620000000     0.0449072  
H301     H      0.353580000000     0.437830000000     0.954170000000     0.0419253  
H302     H      0.279020000000     0.518940000000     0.940160000000     0.0472833  
H303     H      0.281980000000     0.553620000000     0.991330000000     0.0580436  
H304     H      0.290440000000     0.405380000000     0.007640000000     0.0416721  
In1      In     0.374000000000     0.341220000000     0.023750000000     2.42129    
In2      In     0.360320000000     0.658820000000     0.972860000000     2.41298    
In3      In     0.730080000000     0.341890000000     0.046930000000     2.42691    
In4      In     0.725080000000     0.653090000000     0.056090000000     2.41578    
In5      In     0.857700000000     0.170390000000     0.545980000000     2.41796    
In6      In     0.857760000000     0.823050000000     0.553400000000     2.41922    
In7      In     0.214510000000     0.844010000000     0.465590000000     2.41844    
In8      In     0.215310000000     0.184910000000     0.517480000000     2.42756    
N1       N      0.227160000000     0.114020000000     0.540410000000    -0.16682    
N2       N      0.223190000000     0.065520000000     0.529780000000    -0.106855   
N3       N      0.223910000000     0.963770000000     0.516290000000    -0.112189   
N4       N      0.218620000000     0.915200000000     0.493400000000    -0.167469   
N5       N      0.273510000000     0.107960000000     0.551520000000    -0.0314689  
N6       N      0.925680000000     0.803270000000     0.493710000000    -0.166662   
N7       N      0.977100000000     0.807690000000     0.480790000000    -0.106563   
N8       N      0.085840000000     0.814340000000     0.452570000000    -0.112313   
N9       N      0.138760000000     0.825690000000     0.456240000000    -0.166963   
N10      N      0.931410000000     0.759970000000     0.497830000000    -0.0311912  
N11      N      0.858170000000     0.097590000000     0.552550000000    -0.168051   
N12      N      0.861930000000     0.047290000000     0.543680000000    -0.109575   
N13      N      0.852820000000     0.945760000000     0.556980000000    -0.112191   
N14      N      0.856730000000     0.895720000000     0.552170000000    -0.165679   
N15      N      0.878190000000     0.093950000000     0.631920000000    -0.0308224  
N16      N      0.141610000000     0.199230000000     0.476850000000    -0.166969   
N17      N      0.089100000000     0.196630000000     0.476000000000    -0.106817   
N18      N      0.979030000000     0.197640000000     0.469220000000    -0.112722   
N19      N      0.926510000000     0.190730000000     0.490320000000    -0.168154   
N20      N      0.137290000000     0.242500000000     0.467350000000    -0.0314796  
N21      N      0.839670000000     0.813860000000     0.690870000000    -0.166844   
N22      N      0.822950000000     0.789110000000     0.766930000000    -0.106506   
N23      N      0.783460000000     0.742110000000     0.929320000000    -0.112522   
N24      N      0.760000000000     0.709180000000     0.990750000000    -0.166774   
N25      N      0.873570000000     0.830810000000     0.740370000000    -0.0314416  
N26      N      0.719460000000     0.677010000000     0.190190000000    -0.166121   
N27      N      0.738000000000     0.701810000000     0.263950000000    -0.106876   
N28      N      0.776020000000     0.753600000000     0.421710000000    -0.112573   
N29      N      0.805980000000     0.781800000000     0.482840000000    -0.16636    
N30      N      0.676880000000     0.693840000000     0.205790000000    -0.0312986  
N31      N      0.761280000000     0.282450000000     0.988130000000    -0.16652    
N32      N      0.781930000000     0.256830000000     0.917260000000    -0.10688    
N33      N      0.821150000000     0.199140000000     0.769310000000    -0.112269   
N34      N      0.837300000000     0.182240000000     0.681360000000    -0.166116   
N35      N      0.793620000000     0.264830000000     0.040340000000    -0.0312923  
N36      N      0.719920000000     0.318030000000     0.180470000000    -0.164672   
N37      N      0.737380000000     0.291630000000     0.252700000000    -0.105385   
N38      N      0.775470000000     0.235950000000     0.406040000000    -0.112513   
N39      N      0.806420000000     0.208790000000     0.467800000000    -0.16774    
N40      N      0.709100000000     0.349970000000     0.235010000000    -0.0315508  
N41      N      0.768480000000     0.595310000000     0.020720000000    -0.165496   
N42      N      0.774670000000     0.547620000000     0.015110000000    -0.106489   
N43      N      0.788120000000     0.446430000000     0.005600000000    -0.112337   
N44      N      0.777440000000     0.397220000000     0.013190000000    -0.166191   
N45      N      0.786760000000     0.599150000000     0.942330000000    -0.0311589  
N46      N      0.252670000000     0.805990000000     0.566700000000    -0.168803   
N47      N      0.271880000000     0.781440000000     0.646310000000    -0.109186   
N48      N      0.330120000000     0.730400000000     0.784090000000    -0.112483   
N49      N      0.346020000000     0.701410000000     0.859710000000    -0.16729    
N50      N      0.261690000000     0.769600000000     0.519230000000    -0.0319844  
N51      N      0.251310000000     0.825800000000     0.344160000000    -0.170446   
N52      N      0.272570000000     0.800260000000     0.267020000000    -0.110301   
N53      N      0.310450000000     0.723430000000     0.155680000000    -0.112028   
N54      N      0.330770000000     0.694740000000     0.083800000000    -0.165714   
N55      N      0.296800000000     0.831040000000     0.375060000000    -0.0325492  
N56      N      0.436640000000     0.641580000000     0.985930000000    -0.169919   
N57      N      0.490080000000     0.639450000000     0.003480000000    -0.108848   
N58      N      0.599060000000     0.624720000000     0.009440000000    -0.112371   
N59      N      0.652570000000     0.630690000000     0.022800000000    -0.166766   
N60      N      0.431740000000     0.602600000000     0.027210000000    -0.0308642  
N61      N      0.341030000000     0.284580000000     0.957670000000    -0.166216   
N62      N      0.316920000000     0.264150000000     0.883810000000    -0.106806   
N63      N      0.268280000000     0.218180000000     0.728760000000    -0.112006   
N64      N      0.246400000000     0.205300000000     0.642080000000    -0.165933   
N65      N      0.368210000000     0.249020000000     0.963780000000    -0.0314561  
N66      N      0.379340000000     0.316190000000     0.158090000000    -0.170469   
N67      N      0.356330000000     0.291420000000     0.234270000000    -0.110734   
N68      N      0.277810000000     0.245300000000     0.341090000000    -0.112118   
N69      N      0.249520000000     0.220830000000     0.410310000000    -0.165626   
N70      N      0.369560000000     0.355290000000     0.198710000000    -0.0316103  
N71      N      0.661240000000     0.370800000000     0.007630000000    -0.165951   
N72      N      0.609190000000     0.371550000000     0.001400000000    -0.106402   
N73      N      0.499420000000     0.375150000000     0.986230000000    -0.112578   
N74      N      0.446290000000     0.365700000000     0.995460000000    -0.16693    
N75      N      0.660140000000     0.413330000000     0.026790000000    -0.0305296  
N76      N      0.322810000000     0.595280000000     0.958600000000    -0.1645     
N77      N      0.319950000000     0.547220000000     0.965670000000    -0.105263   
N78      N      0.314320000000     0.445380000000     0.972320000000    -0.112704   
N79      N      0.328340000000     0.397220000000     0.985770000000    -0.167169   
N80      N      0.278880000000     0.597620000000     0.989020000000    -0.0315031  
O1       O      0.383840000000     0.312480000000     0.078000000000    -0.502994   
O2       O      0.369860000000     0.345510000000     0.102760000000    -0.466125   
O3       O      0.339190000000     0.318290000000     0.003920000000    -0.506547   
O4       O      0.359410000000     0.368790000000     0.970750000000    -0.510827   
O5       O      0.409710000000     0.363480000000     0.040900000000    -0.503372   
O6       O      0.342740000000     0.368900000000     0.038630000000    -0.487327   
O7       O      0.375920000000     0.308260000000     0.977280000000    -0.481973   
O8       O      0.410350000000     0.342920000000     0.978590000000    -0.490742   
O9       O      0.347950000000     0.664880000000     0.897040000000    -0.492602   
O10      O      0.357870000000     0.695510000000     0.936920000000    -0.500636   
O11      O      0.326770000000     0.674430000000     0.014000000000    -0.490615   
O12      O      0.333490000000     0.629370000000     0.999780000000    -0.47934    
O13      O      0.393900000000     0.639500000000     0.009000000000    -0.482512   
O14      O      0.350510000000     0.624750000000     0.932880000000    -0.489062   
O15      O      0.364730000000     0.679680000000     0.040950000000    -0.500945   
O16      O      0.402710000000     0.662060000000     0.951650000000    -0.511616   
O17      O      0.714670000000     0.315130000000     0.100460000000    -0.503566   
O18      O      0.734940000000     0.345400000000     0.126220000000    -0.477404   
O19      O      0.727300000000     0.307710000000     0.004000000000    -0.49477    
O20      O      0.696150000000     0.345950000000     0.996290000000    -0.494113   
O21      O      0.761800000000     0.368790000000     0.064480000000    -0.486109   
O22      O      0.694970000000     0.365620000000     0.059760000000    -0.491607   
O23      O      0.764330000000     0.317820000000     0.029360000000    -0.49696    
O24      O      0.746670000000     0.368930000000     0.995140000000    -0.504216   
O25      O      0.732810000000     0.649790000000     0.134760000000    -0.489031   
O26      O      0.712060000000     0.680220000000     0.110630000000    -0.496057   
O27      O      0.760900000000     0.674140000000     0.033650000000    -0.501983   
O28      O      0.754340000000     0.623770000000     0.073000000000    -0.489322   
O29      O      0.688030000000     0.632300000000     0.071820000000    -0.502966   
O30      O      0.738790000000     0.624980000000     0.003980000000    -0.49437    
O31      O      0.724210000000     0.687680000000     0.013480000000    -0.492413   
O32      O      0.690080000000     0.651390000000     0.007500000000    -0.493357   
O33      O      0.825590000000     0.173390000000     0.490950000000    -0.492161   
O34      O      0.839320000000     0.205440000000     0.521960000000    -0.509561   
O35      O      0.828140000000     0.171910000000     0.604990000000    -0.507418   
O36      O      0.873710000000     0.134980000000     0.572930000000    -0.482586   
O37      O      0.890450000000     0.166560000000     0.492900000000    -0.509266   
O38      O      0.843270000000     0.133660000000     0.523150000000    -0.492232   
O39      O      0.866890000000     0.181210000000     0.621290000000    -0.489681   
O40      O      0.893320000000     0.194270000000     0.543290000000    -0.497334   
O41      O      0.841300000000     0.786910000000     0.531150000000    -0.49989    
O42      O      0.822950000000     0.818210000000     0.504950000000    -0.49193    
O43      O      0.868280000000     0.813680000000     0.629030000000    -0.479325   
O44      O      0.888420000000     0.825820000000     0.496200000000    -0.509618   
O45      O      0.843890000000     0.858910000000     0.524250000000    -0.489646   
O46      O      0.894870000000     0.801120000000     0.551740000000    -0.482088   
O47      O      0.829090000000     0.821950000000     0.613890000000    -0.50999    
O48      O      0.872080000000     0.859370000000     0.578630000000    -0.498362   
O49      O      0.228670000000     0.809070000000     0.498300000000    -0.474726   
O50      O      0.236900000000     0.841110000000     0.534560000000    -0.504449   
O51      O      0.214990000000     0.830560000000     0.390030000000    -0.502314   
O52      O      0.174190000000     0.847930000000     0.433980000000    -0.499101   
O53      O      0.201830000000     0.877460000000     0.505200000000    -0.503725   
O54      O      0.179300000000     0.822810000000     0.489430000000    -0.499784   
O55      O      0.250560000000     0.840200000000     0.420490000000    -0.468361   
O56      O      0.229890000000     0.881600000000     0.451710000000    -0.49873    
O57      O      0.229650000000     0.219130000000     0.482370000000    -0.499071   
O58      O      0.236010000000     0.186270000000     0.447080000000    -0.491628   
O59      O      0.211830000000     0.198500000000     0.592680000000    -0.49331    
O60      O      0.177800000000     0.206010000000     0.522330000000    -0.486659   
O61      O      0.236770000000     0.150070000000     0.505000000000    -0.484033   
O62      O      0.178780000000     0.176520000000     0.475580000000    -0.506618   
O63      O      0.249470000000     0.193350000000     0.565150000000    -0.500842   
O64      O      0.203820000000     0.148860000000     0.549190000000    -0.504921   
O65      O      0.280010000000     0.130860000000     0.546440000000    -0.0956715  
O66      O      0.267670000000     0.104490000000     0.596440000000    -0.111292   
O67      O      0.907930000000     0.756000000000     0.514990000000    -0.0939394  
O68      O      0.929370000000     0.760300000000     0.451300000000    -0.110405   
O69      O      0.897100000000     0.109970000000     0.635590000000    -0.0931088  
O70      O      0.856080000000     0.104290000000     0.644330000000    -0.103881   
O71      O      0.161720000000     0.247430000000     0.478250000000    -0.0962792  
O72      O      0.136360000000     0.238010000000     0.421580000000    -0.111132   
O73      O      0.887290000000     0.839420000000     0.704760000000    -0.0926724  
O74      O      0.856200000000     0.847340000000     0.751710000000    -0.110172   
O75      O      0.667110000000     0.686970000000     0.164790000000    -0.0985592  
O76      O      0.673830000000     0.675780000000     0.235830000000    -0.109138   
O77      O      0.789370000000     0.280180000000     0.075010000000    -0.0991303  
O78      O      0.777050000000     0.246810000000     0.045480000000    -0.110396   
O79      O      0.705850000000     0.366090000000     0.201040000000    -0.0899072  
O80      O      0.686630000000     0.338790000000     0.240860000000    -0.107799   
O81      O      0.779190000000     0.621770000000     0.937330000000    -0.0976416  
O82      O      0.809750000000     0.599400000000     0.963370000000    -0.108794   
O83      O      0.241010000000     0.764710000000     0.493120000000    -0.0905368  
O84      O      0.276490000000     0.785060000000     0.495970000000    -0.0880306  
O85      O      0.294510000000     0.853260000000     0.391180000000    -0.0876205  
O86      O      0.291660000000     0.815590000000     0.409420000000    -0.0826838  
O87      O      0.412200000000     0.604090000000     0.057230000000    -0.0920523  
O88      O      0.422300000000     0.596510000000     0.985420000000    -0.103871   
O89      O      0.385000000000     0.259190000000     0.992970000000    -0.0932155  
O90      O      0.349370000000     0.239660000000     0.989650000000    -0.110186   
O91      O      0.389450000000     0.365560000000     0.177130000000    -0.0908115  
O92      O      0.347920000000     0.360540000000     0.175500000000    -0.089502   
O93      O      0.684550000000     0.413970000000     0.041480000000    -0.0990178  
O94      O      0.660230000000     0.417140000000     0.980690000000    -0.111196   
O95      O      0.280120000000     0.620990000000     0.997480000000    -0.0934274  
O96      O      0.271220000000     0.594960000000     0.944750000000    -0.108999   


