data_structure

_audit_creation_method RASPA-1.0
_audit_creation_date 2023-6-5
_audit_author_name 'Poobodin Mano'

_cell_length_a    55.1051
_cell_length_b    56.7265
_cell_length_c    29.7382
_cell_angle_alpha 89.7772
_cell_angle_beta  90.2228
_cell_angle_gamma 89.9998
_cell_volume      92957.8

_symmetry_cell_setting          triclinic
_symmetry_space_group_name_Hall 'P 1'
_symmetry_space_group_name_H-M  'P 1'
_symmetry_Int_Tables_number     1

_symmetry_equiv_pos_as_xyz 'x,y,z'

loop_
_atom_site_label
_atom_site_type_symbol
_atom_site_fract_x
_atom_site_fract_y
_atom_site_fract_z
_atom_site_charge
C1       C      0.318550000000     0.372590000000     0.967540000000     0.402396   
C2       C      0.303970000000     0.302610000000     0.920200000000     0.412592   
C3       C      0.376940000000     0.327770000000     0.992960000000     0.409729   
C4       C      0.312420000000     0.304230000000     0.059750000000     0.407222   
C5       C      0.325520000000     0.616400000000     0.986120000000     0.403839   
C6       C      0.324380000000     0.680020000000     0.085650000000     0.401417   
C7       C      0.384530000000     0.661360000000     0.999460000000     0.413535   
C8       C      0.307620000000     0.688900000000     0.948990000000     0.407428   
C9       C      0.630490000000     0.323770000000     0.019030000000     0.406003   
C10      C      0.704820000000     0.305890000000     0.946710000000     0.410232   
C11      C      0.684390000000     0.372740000000     0.009480000000     0.398629   
C12      C      0.697980000000     0.301270000000     0.086140000000     0.404923   
C13      C      0.694370000000     0.618850000000     0.999690000000     0.417176   
C14      C      0.703810000000     0.690060000000     0.933660000000     0.413397   
C15      C      0.637580000000     0.671830000000     0.010870000000     0.404171   
C16      C      0.709470000000     0.686250000000     0.075290000000     0.411734   
C17      C      0.829180000000     0.122330000000     0.529530000000     0.402985   
C18      C      0.817670000000     0.190840000000     0.587840000000     0.402844   
C19      C      0.886470000000     0.170470000000     0.508260000000     0.412258   
C20      C      0.819980000000     0.189870000000     0.441030000000     0.405661   
C21      C      0.880860000000     0.817040000000     0.498140000000     0.408404   
C22      C      0.817070000000     0.807240000000     0.577240000000     0.412883   
C23      C      0.828530000000     0.877160000000     0.503170000000     0.415047   
C24      C      0.808640000000     0.814610000000     0.429690000000     0.402007   
C25      C      0.133760000000     0.816590000000     0.496430000000     0.406694   
C26      C      0.206740000000     0.796390000000     0.433810000000     0.408901   
C27      C      0.189820000000     0.865110000000     0.503040000000     0.407466   
C28      C      0.203190000000     0.796260000000     0.573360000000     0.411762   
C29      C      0.138190000000     0.151300000000     0.482140000000     0.404772   
C30      C      0.204960000000     0.181350000000     0.554360000000     0.402628   
C31      C      0.199640000000     0.110000000000     0.487280000000     0.402199   
C32      C      0.207430000000     0.181320000000     0.418450000000     0.40392    
C33      C      0.197170000000     0.927050000000     0.461200000000    -0.0328502  
C34      C      0.206000000000     0.050370000000     0.533660000000    -0.0307472  
C35      C      0.208400000000     0.073380000000     0.445920000000    -0.00523344 
C36      C      0.215200000000     0.075750000000     0.530000000000    -0.00550126 
C37      C      0.225590000000     0.996630000000     0.490360000000    -0.0539856  
C38      C      0.178830000000     0.979720000000     0.507370000000    -0.0534519  
C39      C      0.206500000000     0.012620000000     0.495980000000     0.0617888  
C40      C      0.199340000000     0.048150000000     0.452750000000    -0.0308053  
C41      C      0.197930000000     0.963730000000     0.501740000000     0.060899   
C42      C      0.206420000000     0.927030000000     0.540380000000    -0.0599222  
C43      C      0.221430000000     0.972380000000     0.493090000000    -0.0556987  
C44      C      0.197420000000     0.901600000000     0.547080000000     0.0982333  
C45      C      0.186450000000     0.902310000000     0.462620000000    -0.00313136 
C46      C      0.182980000000     0.003980000000     0.504440000000    -0.056296   
C47      C      0.945320000000     0.818290000000     0.530580000000    -0.032652   
C48      C      0.071150000000     0.803920000000     0.455050000000    -0.0309509  
C49      C      0.094890000000     0.827310000000     0.530680000000    -0.00451448 
C50      C      0.097160000000     0.812910000000     0.449510000000    -0.00466672 
C51      C      0.016470000000     0.832710000000     0.476390000000    -0.0539854  
C52      C      0.997700000000     0.788940000000     0.502340000000    -0.0536237  
C53      C      0.032370000000     0.814370000000     0.487680000000     0.0617508  
C54      C      0.069090000000     0.817470000000     0.532090000000    -0.0308952  
C55      C      0.981780000000     0.807370000000     0.491430000000     0.0609692  
C56      C      0.943170000000     0.806680000000     0.452280000000    -0.0602161  
C57      C      0.991390000000     0.829340000000     0.478240000000    -0.0556784  
C58      C      0.916360000000     0.799450000000     0.456540000000     0.0973621  
C59      C      0.919080000000     0.810910000000     0.538710000000    -0.00441283 
C60      C      0.022820000000     0.792340000000     0.500570000000    -0.0562772  
C61      C      0.843820000000     0.939910000000     0.526740000000    -0.0328132  
C62      C      0.803970000000     0.063270000000     0.508780000000    -0.0309087  
C63      C      0.842980000000     0.084460000000     0.561470000000    -0.00524857 
C64      C      0.801120000000     0.088400000000     0.526670000000    -0.00532743 
C65      C      0.813810000000     0.008290000000     0.560970000000    -0.0540356  
C66      C      0.829170000000     0.992500000000     0.476780000000    -0.0535396  
C67      C      0.820320000000     0.024750000000     0.527940000000     0.0615802  
C68      C      0.844290000000     0.059650000000     0.541760000000    -0.0307395  
C69      C      0.822650000000     0.976030000000     0.509820000000     0.0607969  
C70      C      0.801610000000     0.938600000000     0.505060000000    -0.0599696  
C71      C      0.815040000000     0.984140000000     0.552220000000    -0.0556579  
C72      C      0.803630000000     0.913210000000     0.487450000000     0.0979451  
C73      C      0.848710000000     0.915270000000     0.508630000000    -0.00372783 
C74      C      0.828150000000     0.016660000000     0.485680000000    -0.0562195  
C75      C      0.946960000000     0.163340000000     0.455150000000    -0.032626   
C76      C      0.074930000000     0.153140000000     0.521520000000    -0.0308056  
C77      C      0.100820000000     0.147460000000     0.436880000000    -0.0051288  
C78      C      0.100160000000     0.141950000000     0.521620000000    -0.00493324 
C79      C      0.019700000000     0.136600000000     0.480180000000    -0.054005   
C80      C      0.005030000000     0.183680000000     0.486060000000    -0.0534588  
C81      C      0.037210000000     0.154480000000     0.480120000000     0.0617055  
C82      C      0.075450000000     0.158280000000     0.440330000000    -0.0308333  
C83      C      0.987520000000     0.165780000000     0.486350000000     0.0609043  
C84      C      0.952970000000     0.164330000000     0.535660000000    -0.0604151  
C85      C      0.995070000000     0.142100000000     0.483450000000    -0.0556922  
C86      C      0.927560000000     0.174520000000     0.543970000000     0.0991948  
C87      C      0.921590000000     0.173970000000     0.458770000000    -0.00433169 
C88      C      0.029700000000     0.178160000000     0.483140000000    -0.0561446  
C89      C      0.740670000000     0.701720000000     0.831410000000    -0.032657   
C90      C      0.782200000000     0.796690000000     0.681540000000    -0.0310608  
C91      C      0.814200000000     0.770640000000     0.621610000000    -0.00414715 
C92      C      0.801340000000     0.810040000000     0.654400000000    -0.00428691 
C93      C      0.785550000000     0.754170000000     0.765230000000    -0.05406    
C94      C      0.736990000000     0.743670000000     0.746240000000    -0.0535156  
C95      C      0.775630000000     0.760670000000     0.723590000000     0.0617085  
C96      C      0.794460000000     0.759090000000     0.650190000000    -0.0310052  
C97      C      0.746900000000     0.737200000000     0.787950000000     0.0608711  
C98      C      0.728380000000     0.739370000000     0.861280000000    -0.0601655  
C99      C      0.771390000000     0.742530000000     0.797230000000    -0.0556972  
C100     C      0.709160000000     0.728170000000     0.891990000000     0.0984838  
C101     C      0.721690000000     0.688450000000     0.858800000000    -0.00400265 
C102     C      0.751180000000     0.755310000000     0.714210000000    -0.0562838  
C103     C      0.716040000000     0.716950000000     0.184490000000    -0.0324055  
C104     C      0.799630000000     0.790210000000     0.316780000000    -0.0308752  
C105     C      0.770760000000     0.798880000000     0.397030000000    -0.00517305 
C106     C      0.805770000000     0.811110000000     0.347170000000    -0.00516155 
C107     C      0.750840000000     0.775790000000     0.250340000000    -0.054106   
C108     C      0.765730000000     0.728690000000     0.254380000000    -0.0535387  
C109     C      0.765990000000     0.768310000000     0.285500000000     0.0616708  
C110     C      0.765910000000     0.778540000000     0.364610000000    -0.0308239  
C111     C      0.750360000000     0.736110000000     0.219470000000     0.0608612  
C112     C      0.752480000000     0.724330000000     0.141640000000    -0.0600377  
C113     C      0.743130000000     0.759920000000     0.217440000000    -0.0557277  
C114     C      0.747060000000     0.704060000000     0.108900000000     0.0976555  
C115     C      0.709030000000     0.696000000000     0.155190000000    -0.00479607 
C116     C      0.773610000000     0.744610000000     0.287090000000    -0.0562568  
C117     C      0.720940000000     0.262640000000     0.857290000000    -0.0327014  
C118     C      0.806870000000     0.235720000000     0.676700000000    -0.0310068  
C119     C      0.786670000000     0.190780000000     0.646970000000    -0.00495106 
C120     C      0.822870000000     0.218840000000     0.649920000000    -0.00481933 
C121     C      0.779320000000     0.231200000000     0.781380000000    -0.0540776  
C122     C      0.749580000000     0.268790000000     0.755060000000    -0.0533807  
C123     C      0.776670000000     0.236550000000     0.735630000000     0.061712   
C124     C      0.772520000000     0.209100000000     0.673860000000    -0.0308541  
C125     C      0.752150000000     0.263390000000     0.800850000000     0.0608141  
C126     C      0.754790000000     0.289210000000     0.865350000000    -0.0596623  
C127     C      0.767180000000     0.244430000000     0.813820000000    -0.0556159  
C128     C      0.740280000000     0.306500000000     0.894590000000     0.0971973  
C129     C      0.704010000000     0.278570000000     0.883840000000    -0.00371872 
C130     C      0.761700000000     0.255520000000     0.722590000000    -0.0562966  
C131     C      0.736570000000     0.290200000000     0.186720000000    -0.0322755  
C132     C      0.784390000000     0.197800000000     0.336330000000    -0.0309801  
C133     C      0.814230000000     0.226200000000     0.396660000000    -0.00525402 
C134     C      0.804720000000     0.186010000000     0.363450000000    -0.00494846 
C135     C      0.783560000000     0.239550000000     0.252010000000    -0.0540081  
C136     C      0.734940000000     0.248370000000     0.272680000000    -0.0534156  
C137     C      0.774630000000     0.233180000000     0.294370000000     0.0616141  
C138     C      0.793550000000     0.236220000000     0.367910000000    -0.030911   
C139     C      0.743940000000     0.254990000000     0.230480000000     0.0607776  
C140     C      0.723590000000     0.252350000000     0.158470000000    -0.0597383  
C141     C      0.768410000000     0.250280000000     0.220200000000    -0.0555757  
C142     C      0.703590000000     0.263440000000     0.128970000000     0.0970944  
C143     C      0.716950000000     0.303270000000     0.160310000000    -0.00520171 
C144     C      0.750060000000     0.237480000000     0.304410000000    -0.0562117  
C145     C      0.682270000000     0.557290000000     0.966530000000    -0.0328538  
C146     C      0.703570000000     0.434440000000     0.035310000000    -0.0308516  
C147     C      0.671700000000     0.409530000000     0.972790000000    -0.00465241 
C148     C      0.694890000000     0.409630000000     0.047580000000    -0.00491381 
C149     C      0.673340000000     0.487200000000     0.022320000000    -0.0538805  
C150     C      0.713790000000     0.504200000000     0.975870000000    -0.0535155  
C151     C      0.689610000000     0.471240000000     0.003050000000     0.0616327  
C152     C      0.681600000000     0.434360000000     0.964730000000    -0.0308347  
C153     C      0.697460000000     0.520180000000     0.995020000000     0.0610126  
C154     C      0.706970000000     0.556300000000     0.034060000000    -0.0601244  
C155     C      0.677180000000     0.511460000000     0.018510000000    -0.0558226  
C156     C      0.715150000000     0.582000000000     0.027590000000     0.097468   
C157     C      0.689720000000     0.582630000000     0.956130000000    -0.00416666 
C158     C      0.709990000000     0.479910000000     0.979850000000    -0.0562056  
C159     C      0.207910000000     0.759000000000     0.676770000000    -0.0327088  
C160     C      0.294450000000     0.730200000000     0.857100000000    -0.0308374  
C161     C      0.268020000000     0.696410000000     0.912500000000    -0.00512804 
C162     C      0.302440000000     0.725750000000     0.905690000000    -0.00520006 
C163     C      0.243150000000     0.753310000000     0.807560000000    -0.0541435  
C164     C      0.257740000000     0.731580000000     0.727840000000    -0.0535529  
C165     C      0.259060000000     0.734090000000     0.809500000000     0.0616395  
C166     C      0.261280000000     0.702050000000     0.863640000000    -0.0309372  
C167     C      0.241980000000     0.750940000000     0.725870000000     0.0607975  
C168     C      0.243610000000     0.783540000000     0.673670000000    -0.0601653  
C169     C      0.234650000000     0.761740000000     0.766200000000    -0.0556915  
C170     C      0.238800000000     0.790890000000     0.624660000000     0.0983342  
C171     C      0.201340000000     0.764040000000     0.627770000000    -0.00398334 
C172     C      0.266260000000     0.723170000000     0.769230000000    -0.0562764  
C173     C      0.230210000000     0.747780000000     0.361610000000    -0.0328522  
C174     C      0.309440000000     0.725580000000     0.167830000000    -0.0308481  
C175     C      0.306050000000     0.674440000000     0.160530000000    -0.00565099 
C176     C      0.328580000000     0.711980000000     0.141290000000    -0.00553882 
C177     C      0.291130000000     0.725490000000     0.279450000000    -0.0540095  
C178     C      0.248170000000     0.746840000000     0.249840000000    -0.053463   
C179     C      0.284260000000     0.723590000000     0.234230000000     0.061699   
C180     C      0.287690000000     0.689420000000     0.186180000000    -0.0307366  
C181     C      0.255110000000     0.748850000000     0.295020000000     0.0608996  
C182     C      0.252770000000     0.782910000000     0.343220000000    -0.0599891  
C183     C      0.276730000000     0.737960000000     0.309710000000    -0.0557125  
C184     C      0.235190000000     0.799000000000     0.368800000000     0.098152   
C185     C      0.210750000000     0.761580000000     0.386650000000    -0.00372385 
C186     C      0.262540000000     0.734290000000     0.219590000000    -0.056267   
C187     C      0.448300000000     0.657580000000     0.040030000000    -0.03276    
C188     C      0.574380000000     0.680100000000     0.972970000000    -0.0309319  
C189     C      0.600280000000     0.668560000000     0.055930000000    -0.00494842 
C190     C      0.600090000000     0.689520000000     0.980380000000    -0.00507662 
C191     C      0.519690000000     0.688850000000     0.026640000000    -0.0540426  
C192     C      0.503320000000     0.647210000000     0.986600000000    -0.0535283  
C193     C      0.536570000000     0.672330000000     0.011260000000     0.0616313  
C194     C      0.574550000000     0.660040000000     0.045380000000    -0.0309519  
C195     C      0.486420000000     0.663720000000     0.002060000000     0.0607683  
C196     C      0.448930000000     0.675800000000     0.966490000000    -0.0601664  
C197     C      0.494820000000     0.684680000000     0.022100000000    -0.055599   
C198     C      0.422810000000     0.668030000000     0.955840000000     0.098381   
C199     C      0.422660000000     0.648110000000     0.033080000000    -0.00408478 
C200     C      0.528210000000     0.651420000000     0.991060000000    -0.0562495  
C201     C      0.295230000000     0.262980000000     0.822240000000    -0.0326178  
C202     C      0.207840000000     0.221290000000     0.653260000000    -0.0309932  
C203     C      0.240650000000     0.193020000000     0.598590000000    -0.00460191 
C204     C      0.200500000000     0.215170000000     0.605040000000    -0.00469443 
C205     C      0.255540000000     0.254040000000     0.697690000000    -0.054035   
C206     C      0.246390000000     0.231830000000     0.780030000000    -0.0534623  
C207     C      0.242410000000     0.232930000000     0.698540000000     0.0619527  
C208     C      0.245920000000     0.200170000000     0.647140000000    -0.030819   
C209     C      0.259640000000     0.252900000000     0.779160000000     0.0610127  
C210     C      0.258560000000     0.285860000000     0.830390000000    -0.0599443  
C211     C      0.264140000000     0.264000000000     0.737550000000    -0.0556673  
C212     C      0.265540000000     0.293930000000     0.878020000000     0.0977637  
C213     C      0.303840000000     0.268870000000     0.869650000000    -0.00419468 
C214     C      0.237820000000     0.221850000000     0.740100000000    -0.0562925  
C215     C      0.279110000000     0.293340000000     0.167720000000    -0.0328195  
C216     C      0.246420000000     0.196880000000     0.320790000000    -0.0309303  
C217     C      0.211260000000     0.219470000000     0.379860000000    -0.00453503 
C218     C      0.241880000000     0.186340000000     0.367360000000    -0.0044443  
C219     C      0.271790000000     0.248810000000     0.285330000000    -0.0539901  
C220     C      0.249750000000     0.241640000000     0.201620000000    -0.0533935  
C221     C      0.251520000000     0.234030000000     0.282120000000     0.0618763  
C222     C      0.217540000000     0.228420000000     0.332740000000    -0.0309991  
C223     C      0.269990000000     0.256490000000     0.204840000000     0.0610211  
C224     C      0.303380000000     0.259020000000     0.152790000000    -0.06009    
C225     C      0.281050000000     0.259930000000     0.247100000000    -0.0556668  
C226     C      0.310590000000     0.267640000000     0.105640000000     0.0986069  
C227     C      0.283640000000     0.304010000000     0.121420000000    -0.00305219 
C228     C      0.240570000000     0.230400000000     0.239850000000    -0.0562487  
C229     C      0.438630000000     0.337650000000     0.043080000000    -0.0329279  
C230     C      0.565790000000     0.317190000000     0.982940000000    -0.0309838  
C231     C      0.593500000000     0.331830000000     0.061970000000    -0.00431756 
C232     C      0.592250000000     0.324470000000     0.976960000000    -0.00416148 
C233     C      0.514960000000     0.348300000000     0.011560000000    -0.054033   
C234     C      0.492120000000     0.305060000000     0.027470000000    -0.0534058  
C235     C      0.529040000000     0.328360000000     0.021230000000     0.0617812  
C236     C      0.566830000000     0.324300000000     0.063020000000    -0.0310764  
C237     C      0.478050000000     0.324950000000     0.017140000000     0.060766   
C238     C      0.444110000000     0.326180000000     0.965920000000    -0.0601755  
C239     C      0.489700000000     0.346690000000     0.009430000000    -0.0556469  
C240     C      0.417380000000     0.319180000000     0.959930000000     0.0988431  
C241     C      0.411870000000     0.330720000000     0.043020000000    -0.00330333 
C242     C      0.517430000000     0.306670000000     0.029490000000    -0.056335   
C243     C      0.324420000000     0.557620000000     0.927380000000    -0.033044   
C244     C      0.304770000000     0.434270000000     0.992860000000    -0.030609   
C245     C      0.321530000000     0.406820000000     0.916320000000    -0.00521015 
C246     C      0.296290000000     0.408810000000     0.987120000000    -0.00551496 
C247     C      0.297020000000     0.485490000000     0.932600000000    -0.0541009  
C248     C      0.336870000000     0.503460000000     0.979810000000    -0.0533441  
C249     C      0.313880000000     0.469930000000     0.951810000000     0.0617374  
C250     C      0.329010000000     0.432440000000     0.924640000000    -0.0310889  
C251     C      0.319810000000     0.519020000000     0.961200000000     0.060847   
C252     C      0.302970000000     0.553310000000     0.997070000000    -0.060223   
C253     C      0.299870000000     0.509840000000     0.937180000000    -0.0557145  
C254     C      0.308970000000     0.578400000000     0.012800000000     0.0993322  
C255     C      0.332920000000     0.582600000000     0.938030000000    -0.0022655  
C256     C      0.334010000000     0.479110000000     0.975240000000    -0.0563309  
H1       H      0.167880000000     0.015960000000     0.508570000000     0.0412439  
H2       H      0.188250000000     0.936950000000     0.433270000000     0.0356913  
H3       H      0.203970000000     0.936730000000     0.572540000000     0.0464082  
H4       H      0.227770000000     0.072730000000     0.435670000000     0.0388265  
H5       H      0.166320000000     0.903700000000     0.461020000000     0.0372778  
H6       H      0.215150000000     0.041760000000     0.562840000000     0.035725   
H7       H      0.203500000000     0.037860000000     0.421920000000     0.0355948  
H8       H      0.209390000000     0.085640000000     0.560320000000     0.0452101  
H9       H      0.160650000000     0.973320000000     0.513800000000     0.0450437  
H10      H      0.192330000000     0.892790000000     0.431880000000     0.0434182  
H11      H      0.243740000000     0.003030000000     0.483590000000     0.0450919  
H12      H      0.216940000000     0.925950000000     0.453720000000     0.036961   
H13      H      0.197920000000     0.081640000000     0.417970000000     0.0450666  
H14      H      0.179800000000     0.902510000000     0.565210000000     0.0176451  
H15      H      0.186110000000     0.050640000000     0.540200000000     0.0380772  
H16      H      0.179280000000     0.048380000000     0.457250000000     0.0381105  
H17      H      0.236480000000     0.960420000000     0.488260000000     0.0406309  
H18      H      0.226220000000     0.926860000000     0.532740000000     0.0465375  
H19      H      0.235370000000     0.075460000000     0.529690000000     0.0386061  
H20      H      0.206740000000     0.877540000000     0.597820000000     0.0998704  
H21      H      0.228840000000     0.881330000000     0.556840000000     0.0933241  
H22      H      0.034740000000     0.777920000000     0.509690000000     0.0413459  
H23      H      0.955590000000     0.816080000000     0.562630000000     0.0358108  
H24      H      0.951770000000     0.795530000000     0.426060000000     0.0471135  
H25      H      0.093910000000     0.846750000000     0.526050000000     0.0372782  
H26      H      0.919010000000     0.792810000000     0.553230000000     0.0362065  
H27      H      0.062030000000     0.804440000000     0.421590000000     0.0355949  
H28      H      0.058400000000     0.828080000000     0.556420000000     0.0354295  
H29      H      0.107540000000     0.799950000000     0.429210000000     0.043486   
H30      H      0.990590000000     0.771990000000     0.512720000000     0.0449527  
H31      H      0.911260000000     0.822920000000     0.564320000000     0.0456022  
H32      H      0.023580000000     0.849770000000     0.466620000000     0.0450466  
H33      H      0.945780000000     0.837280000000     0.520980000000     0.0389523  
H34      H      0.103770000000     0.823880000000     0.563720000000     0.0438278  
H35      H      0.915880000000     0.780000000000     0.461670000000     0.0164112  
H36      H      0.071590000000     0.785250000000     0.466780000000     0.0378461  
H37      H      0.069580000000     0.798910000000     0.544440000000     0.0381113  
H38      H      0.979540000000     0.843940000000     0.469900000000     0.0408144  
H39      H      0.944200000000     0.825390000000     0.440900000000     0.0463194  
H40      H      0.096690000000     0.829740000000     0.430250000000     0.0378035  
H41      H      0.889230000000     0.794130000000     0.408290000000     0.103468   
H42      H      0.900070000000     0.823060000000     0.411130000000     0.0977229  
H43      H      0.833670000000     0.028990000000     0.459800000000     0.04126    
H44      H      0.860950000000     0.950260000000     0.524580000000     0.035428   
H45      H      0.787070000000     0.947830000000     0.485730000000     0.0467922  
H46      H      0.837400000000     0.083070000000     0.597280000000     0.0369413  
H47      H      0.857610000000     0.916910000000     0.475260000000     0.0360872  
H48      H      0.785680000000     0.055010000000     0.506780000000     0.0358229  
H49      H      0.856030000000     0.048660000000     0.564050000000     0.0349456  
H50      H      0.790790000000     0.099040000000     0.501610000000     0.0456141  
H51      H      0.835300000000     0.986540000000     0.444190000000     0.0448381  
H52      H      0.861860000000     0.906430000000     0.531650000000     0.0435248  
H53      H      0.808040000000     0.014240000000     0.593790000000     0.0449283  
H54      H      0.838560000000     0.938690000000     0.562830000000     0.0377273  
H55      H      0.861420000000     0.092410000000     0.560620000000     0.0427645  
H56      H      0.804230000000     0.914180000000     0.450060000000     0.0160467  
H57      H      0.811620000000     0.064110000000     0.474210000000     0.0383493  
H58      H      0.852860000000     0.060480000000     0.507920000000     0.0381219  
H59      H      0.810250000000     0.971840000000     0.578630000000     0.0407134  
H60      H      0.796040000000     0.938160000000     0.541050000000     0.0466299  
H61      H      0.790250000000     0.087710000000     0.558070000000     0.0381547  
H62      H      0.776400000000     0.888100000000     0.476920000000     0.100344   
H63      H      0.783020000000     0.893530000000     0.533330000000     0.0961512  
H64      H      0.042880000000     0.192300000000     0.483770000000     0.04165    
H65      H      0.954760000000     0.168550000000     0.422090000000     0.0357425  
H66      H      0.965230000000     0.170510000000     0.563070000000     0.0471494  
H67      H      0.098960000000     0.128730000000     0.426550000000     0.0370131  
H68      H      0.922730000000     0.193120000000     0.450910000000     0.0365476  
H69      H      0.064510000000     0.145690000000     0.550260000000     0.0355518  
H70      H      0.065410000000     0.154570000000     0.408580000000     0.0356247  
H71      H      0.109940000000     0.147490000000     0.552610000000     0.0449641  
H72      H      0.999530000000     0.201940000000     0.488790000000     0.0452664  
H73      H      0.909910000000     0.165760000000     0.432560000000     0.0438607  
H74      H      0.025240000000     0.118310000000     0.478330000000     0.0447908  
H75      H      0.945470000000     0.143770000000     0.456090000000     0.0376114  
H76      H      0.111030000000     0.156840000000     0.410040000000     0.0446649  
H77      H      0.929640000000     0.193810000000     0.549610000000     0.0175381  
H78      H      0.076690000000     0.172520000000     0.526610000000     0.0391608  
H79      H      0.077190000000     0.177740000000     0.443860000000     0.0385761  
H80      H      0.981990000000     0.127880000000     0.484290000000     0.0406429  
H81      H      0.952220000000     0.144710000000     0.537410000000     0.0471748  
H82      H      0.098100000000     0.122460000000     0.522950000000     0.0367208  
H83      H      0.906850000000     0.175070000000     0.602820000000     0.103242   
H84      H      0.910200000000     0.147160000000     0.579020000000     0.0987179  
H85      H      0.743090000000     0.760150000000     0.682260000000     0.0413821  
H86      H      0.744170000000     0.691610000000     0.800070000000     0.0357577  
H87      H      0.722280000000     0.757510000000     0.852250000000     0.0467743  
H88      H      0.831980000000     0.768300000000     0.638900000000     0.0374146  
H89      H      0.705940000000     0.684450000000     0.836600000000     0.0378023  
H90      H      0.778920000000     0.806480000000     0.713320000000     0.0353759  
H91      H      0.800310000000     0.740800000000     0.658580000000     0.0354431  
H92      H      0.793640000000     0.827320000000     0.643750000000     0.0426983  
H93      H      0.718200000000     0.739710000000     0.738630000000     0.0451626  
H94      H      0.729680000000     0.671310000000     0.869510000000     0.043957   
H95      H      0.804330000000     0.758180000000     0.772880000000     0.0449913  
H96      H      0.757920000000     0.702580000000     0.851000000000     0.0373808  
H97      H      0.815200000000     0.761320000000     0.588830000000     0.0436846  
H98      H      0.691130000000     0.730920000000     0.875730000000     0.0184259  
H99      H      0.764890000000     0.796240000000     0.662090000000     0.0381859  
H100     H      0.777350000000     0.758050000000     0.630220000000     0.0384641  
H101     H      0.779530000000     0.737760000000     0.829160000000     0.0405986  
H102     H      0.745850000000     0.740940000000     0.880060000000     0.0464495  
H103     H      0.817180000000     0.813660000000     0.676610000000     0.0373569  
H104     H      0.692450000000     0.741800000000     0.949390000000     0.100328   
H105     H      0.722910000000     0.734240000000     0.956820000000     0.0926549  
H106     H      0.785550000000     0.738440000000     0.313600000000     0.0413685  
H107     H      0.708660000000     0.713940000000     0.218840000000     0.0357084  
H108     H      0.772520000000     0.726580000000     0.143930000000     0.0466863  
H109     H      0.758160000000     0.813590000000     0.388640000000     0.0369109  
H110     H      0.714570000000     0.679510000000     0.172790000000     0.0367076  
H111     H      0.804930000000     0.794820000000     0.281750000000     0.0352856  
H112     H      0.746140000000     0.774510000000     0.365070000000     0.0354762  
H113     H      0.825790000000     0.813580000000     0.347600000000     0.044457   
H114     H      0.771600000000     0.710490000000     0.256170000000     0.0450123  
H115     H      0.688910000000     0.695680000000     0.152060000000     0.044974   
H116     H      0.745000000000     0.794000000000     0.248500000000     0.0448248  
H117     H      0.707480000000     0.733190000000     0.170450000000     0.037316   
H118     H      0.766600000000     0.792910000000     0.431820000000     0.0444216  
H119     H      0.758400000000     0.688730000000     0.119340000000     0.0174633  
H120     H      0.810420000000     0.774570000000     0.327620000000     0.0385224  
H121     H      0.775920000000     0.762650000000     0.376590000000     0.0384253  
H122     H      0.731500000000     0.766220000000     0.190570000000     0.0405415  
H123     H      0.744670000000     0.741050000000     0.128070000000     0.0462152  
H124     H      0.797500000000     0.827290000000     0.332510000000     0.0370846  
H125     H      0.760540000000     0.697580000000     0.044430000000     0.0996244  
H126     H      0.741180000000     0.721850000000     0.047810000000     0.0916362  
H127     H      0.759300000000     0.259950000000     0.687430000000     0.0413145  
H128     H      0.709780000000     0.252360000000     0.832980000000     0.035893   
H129     H      0.768890000000     0.299370000000     0.846810000000     0.046582   
H130     H      0.792610000000     0.176460000000     0.670190000000     0.0374487  
H131     H      0.692050000000     0.288210000000     0.859810000000     0.0389412  
H132     H      0.818750000000     0.246280000000     0.699320000000     0.0356809  
H133     H      0.758640000000     0.199730000000     0.694350000000     0.0354167  
H134     H      0.834330000000     0.229340000000     0.626550000000     0.0444887  
H135     H      0.738020000000     0.283250000000     0.744560000000     0.0452502  
H136     H      0.692110000000     0.267170000000     0.904860000000     0.0440479  
H137     H      0.790730000000     0.216630000000     0.791870000000     0.045014   
H138     H      0.729930000000     0.249950000000     0.880690000000     0.0367715  
H139     H      0.774280000000     0.182780000000     0.621660000000     0.0429508  
H140     H      0.735540000000     0.321980000000     0.873140000000     0.018016   
H141     H      0.797550000000     0.248060000000     0.653080000000     0.0379041  
H142     H      0.762880000000     0.221210000000     0.650230000000     0.0376122  
H143     H      0.769390000000     0.239760000000     0.848910000000     0.0403907  
H144     H      0.764320000000     0.276230000000     0.887440000000     0.046015   
H145     H      0.835260000000     0.209520000000     0.673640000000     0.0380611  
H146     H      0.752930000000     0.331920000000     0.939740000000     0.099772   
H147     H      0.755550000000     0.303000000000     0.958940000000     0.0907457  
H148     H      0.742660000000     0.232550000000     0.336750000000     0.0413022  
H149     H      0.740770000000     0.300500000000     0.217590000000     0.0359711  
H150     H      0.717710000000     0.234270000000     0.168310000000     0.0467342  
H151     H      0.831720000000     0.229940000000     0.379540000000     0.0379777  
H152     H      0.701660000000     0.307250000000     0.183380000000     0.0382098  
H153     H      0.781850000000     0.187810000000     0.304510000000     0.0355955  
H154     H      0.797870000000     0.254900000000     0.359600000000     0.0355711  
H155     H      0.798610000000     0.168110000000     0.373820000000     0.0445874  
H156     H      0.716150000000     0.251760000000     0.281000000000     0.0451451  
H157     H      0.724610000000     0.320430000000     0.148990000000     0.0464071  
H158     H      0.802370000000     0.236220000000     0.243740000000     0.0450043  
H159     H      0.753340000000     0.289280000000     0.166000000000     0.0371693  
H160     H      0.814510000000     0.235530000000     0.429480000000     0.0434833  
H161     H      0.686030000000     0.261000000000     0.146810000000     0.0180301  
H162     H      0.767160000000     0.196870000000     0.355720000000     0.0381474  
H163     H      0.776480000000     0.235920000000     0.387820000000     0.0376511  
H164     H      0.775830000000     0.255040000000     0.187770000000     0.0404324  
H165     H      0.740590000000     0.250660000000     0.138520000000     0.0459251  
H166     H      0.820780000000     0.183820000000     0.341320000000     0.0387987  
H167     H      0.685160000000     0.249730000000     0.073270000000     0.101019   
H168     H      0.715540000000     0.256580000000     0.063430000000     0.0917707  
H169     H      0.722900000000     0.467920000000     0.964900000000     0.0412715  
H170     H      0.678300000000     0.548220000000     0.934190000000     0.0357648  
H171     H      0.721680000000     0.546540000000     0.051960000000     0.0470873  
H172     H      0.652410000000     0.410890000000     0.983330000000     0.0378908  
H173     H      0.704670000000     0.582310000000     0.931130000000     0.0373249  
H174     H      0.706850000000     0.444330000000     0.067030000000     0.0356991  
H175     H      0.668350000000     0.444200000000     0.943430000000     0.0354786  
H176     H      0.710180000000     0.399880000000     0.063630000000     0.0449145  
H177     H      0.729530000000     0.510630000000     0.957890000000     0.0450121  
H178     H      0.674010000000     0.591680000000     0.940020000000     0.0442413  
H179     H      0.657640000000     0.480770000000     0.040410000000     0.0450641  
H180     H      0.665350000000     0.557480000000     0.986880000000     0.0376666  
H181     H      0.672010000000     0.399730000000     0.940460000000     0.0434142  
H182     H      0.733430000000     0.581630000000     0.011770000000     0.0170834  
H183     H      0.721080000000     0.433270000000     0.016870000000     0.0377574  
H184     H      0.699020000000     0.433190000000     0.945990000000     0.0375236  
H185     H      0.664340000000     0.523360000000     0.033890000000     0.0406626  
H186     H      0.690490000000     0.555850000000     0.055680000000     0.0463027  
H187     H      0.680210000000     0.411070000000     0.072970000000     0.0389566  
H188     H      0.730340000000     0.606080000000     0.072750000000     0.100925   
H189     H      0.700440000000     0.598040000000     0.084790000000     0.0940314  
H190     H      0.278630000000     0.708350000000     0.769790000000     0.0412541  
H191     H      0.200850000000     0.741210000000     0.685770000000     0.035684   
H192     H      0.263560000000     0.784080000000     0.679760000000     0.0465277  
H193     H      0.256130000000     0.706900000000     0.934970000000     0.0361558  
H194     H      0.206880000000     0.748690000000     0.607060000000     0.0370958  
H195     H      0.299160000000     0.748700000000     0.848030000000     0.035475   
H196     H      0.241350000000     0.699670000000     0.859470000000     0.0352057  
H197     H      0.322550000000     0.727110000000     0.907670000000     0.044534   
H198     H      0.263610000000     0.723160000000     0.697130000000     0.0448758  
H199     H      0.181250000000     0.765500000000     0.625210000000     0.0440621  
H200     H      0.237540000000     0.761920000000     0.838240000000     0.0448555  
H201     H      0.198800000000     0.772170000000     0.698660000000     0.0373982  
H202     H      0.264350000000     0.677430000000     0.919130000000     0.0425283  
H203     H      0.251460000000     0.780690000000     0.603060000000     0.0160312  
H204     H      0.304640000000     0.718190000000     0.834440000000     0.0385348  
H205     H      0.270640000000     0.689360000000     0.841090000000     0.0380428  
H206     H      0.222600000000     0.776800000000     0.765690000000     0.0406557  
H207     H      0.234990000000     0.796510000000     0.696730000000     0.0468101  
H208     H      0.294680000000     0.739810000000     0.927250000000     0.0368488  
H209     H      0.251950000000     0.820140000000     0.589180000000     0.0991067  
H210     H      0.229830000000     0.826760000000     0.628930000000     0.0955271  
H211     H      0.256770000000     0.733010000000     0.184870000000     0.0412283  
H212     H      0.221750000000     0.731500000000     0.347790000000     0.0358025  
H213     H      0.260970000000     0.793310000000     0.315290000000     0.0467498  
H214     H      0.319470000000     0.667190000000     0.184950000000     0.0381824  
H215     H      0.194510000000     0.763250000000     0.364550000000     0.0390251  
H216     H      0.318140000000     0.741570000000     0.182290000000     0.0354506  
H217     H      0.280220000000     0.678620000000     0.214240000000     0.0355196  
H218     H      0.334500000000     0.722950000000     0.112270000000     0.043754   
H219     H      0.231590000000     0.755100000000     0.238070000000     0.0452137  
H220     H      0.205240000000     0.751080000000     0.416600000000     0.0430235  
H221     H      0.307750000000     0.717280000000     0.291190000000     0.044889   
H222     H      0.244730000000     0.742390000000     0.385710000000     0.0368404  
H223     H      0.296380000000     0.659320000000     0.144910000000     0.045358   
H224     H      0.223630000000     0.808160000000     0.343380000000     0.0183831  
H225     H      0.294760000000     0.731370000000     0.144420000000     0.037874   
H226     H      0.272460000000     0.694250000000     0.163210000000     0.0380566  
H227     H      0.282520000000     0.739200000000     0.344430000000     0.0405042  
H228     H      0.267760000000     0.777300000000     0.366160000000     0.0463747  
H229     H      0.344630000000     0.709050000000     0.163380000000     0.0376651  
H230     H      0.241030000000     0.832960000000     0.393920000000     0.102241   
H231     H      0.255440000000     0.810620000000     0.424340000000     0.0928025  
H232     H      0.540890000000     0.638410000000     0.978750000000     0.0411697  
H233     H      0.458100000000     0.645440000000     0.063350000000     0.0356706  
H234     H      0.459110000000     0.677070000000     0.934290000000     0.0470091  
H235     H      0.599100000000     0.684200000000     0.078230000000     0.0381911  
H236     H      0.423850000000     0.629220000000     0.023460000000     0.0363976  
H237     H      0.564330000000     0.692870000000     0.951330000000     0.0355719  
H238     H      0.564610000000     0.657880000000     0.077650000000     0.0353652  
H239     H      0.609730000000     0.689740000000     0.947580000000     0.0440827  
H240     H      0.497150000000     0.631060000000     0.971010000000     0.0449325  
H241     H      0.413040000000     0.648920000000     0.065850000000     0.0437569  
H242     H      0.525870000000     0.705030000000     0.042140000000     0.045009   
H243     H      0.447280000000     0.675230000000     0.056180000000     0.0377917  
H244     H      0.610030000000     0.654450000000     0.074750000000     0.0439695  
H245     H      0.423900000000     0.652370000000     0.933490000000     0.0173629  
H246     H      0.575350000000     0.662970000000     0.954890000000     0.0381699  
H247     H      0.575530000000     0.642510000000     0.028730000000     0.0377078  
H248     H      0.482180000000     0.697790000000     0.034200000000     0.0407455  
H249     H      0.448660000000     0.693690000000     0.981900000000     0.0468606  
H250     H      0.598870000000     0.708020000000     0.992380000000     0.0376171  
H251     H      0.398250000000     0.681060000000     0.907980000000     0.102719   
H252     H      0.403900000000     0.700100000000     0.952790000000     0.0965187  
H253     H      0.227780000000     0.205470000000     0.741610000000     0.0415478  
H254     H      0.302720000000     0.245430000000     0.813020000000     0.0358885  
H255     H      0.238390000000     0.285310000000     0.827930000000     0.0469037  
H256     H      0.251030000000     0.204810000000     0.575710000000     0.0374892  
H257     H      0.299620000000     0.253720000000     0.892150000000     0.037272   
H258     H      0.199370000000     0.238450000000     0.662180000000     0.0357284  
H259     H      0.265940000000     0.201490000000     0.651570000000     0.0356622  
H260     H      0.180670000000     0.211520000000     0.604180000000     0.0445601  
H261     H      0.242840000000     0.223080000000     0.811750000000     0.0451772  
H262     H      0.323920000000     0.270790000000     0.868910000000     0.0449737  
H263     H      0.259260000000     0.262700000000     0.665940000000     0.0451403  
H264     H      0.302580000000     0.276300000000     0.798260000000     0.0377155  
H265     H      0.247400000000     0.174750000000     0.593400000000     0.0450472  
H266     H      0.254960000000     0.283050000000     0.902270000000     0.0167063  
H267     H      0.200680000000     0.207570000000     0.676590000000     0.038274   
H268     H      0.239100000000     0.186220000000     0.670340000000     0.0385254  
H269     H      0.274390000000     0.280240000000     0.735840000000     0.0407405  
H270     H      0.265200000000     0.299040000000     0.805410000000     0.0465412  
H271     H      0.203860000000     0.230770000000     0.583190000000     0.0381267  
H272     H      0.252900000000     0.322580000000     0.915350000000     0.100392   
H273     H      0.271280000000     0.330250000000     0.869960000000     0.0944095  
H274     H      0.225040000000     0.218860000000     0.236420000000     0.0415266  
H275     H      0.261210000000     0.299740000000     0.179920000000     0.0360858  
H276     H      0.303640000000     0.239390000000     0.152870000000     0.0465193  
H277     H      0.220760000000     0.230650000000     0.405020000000     0.0373888  
H278     H      0.266850000000     0.302130000000     0.100850000000     0.0382935  
H279     H      0.265390000000     0.192660000000     0.310870000000     0.0357371  
H280     H      0.214920000000     0.247870000000     0.331890000000     0.0356923  
H281     H      0.242200000000     0.166780000000     0.364690000000     0.0448383  
H282     H      0.241160000000     0.238710000000     0.169320000000     0.0453553  
H283     H      0.286920000000     0.323250000000     0.125490000000     0.0445462  
H284     H      0.280490000000     0.251600000000     0.317580000000     0.0451616  
H285     H      0.293330000000     0.299670000000     0.191520000000     0.0368799  
H286     H      0.191420000000     0.221670000000     0.385250000000     0.0440563  
H287     H      0.300670000000     0.256580000000     0.080740000000     0.0181045  
H288     H      0.233920000000     0.188570000000     0.295950000000     0.0384656  
H289     H      0.204840000000     0.220390000000     0.307920000000     0.0380598  
H290     H      0.296840000000     0.271130000000     0.250510000000     0.0407309  
H291     H      0.317050000000     0.265080000000     0.177980000000     0.0470722  
H292     H      0.257010000000     0.191580000000     0.390080000000     0.0382871  
H293     H      0.341040000000     0.258500000000     0.067670000000     0.0999505  
H294     H      0.346930000000     0.278190000000     0.110890000000     0.092681   
H295     H      0.527920000000     0.290960000000     0.036680000000     0.041284   
H296     H      0.445760000000     0.335760000000     0.078000000000     0.0354641  
H297     H      0.455200000000     0.315300000000     0.942610000000     0.0468184  
H298     H      0.594440000000     0.351360000000     0.064840000000     0.0379007  
H299     H      0.409870000000     0.313740000000     0.061480000000     0.0367425  
H300     H      0.555910000000     0.321010000000     0.950990000000     0.0357814  
H301     H      0.557760000000     0.333570000000     0.091280000000     0.0354344  
H302     H      0.600890000000     0.312330000000     0.952480000000     0.0443815  
H303     H      0.483440000000     0.288190000000     0.033180000000     0.0451363  
H304     H      0.401610000000     0.344230000000     0.062180000000     0.0414453  
H305     H      0.523670000000     0.365050000000     0.004840000000     0.0451031  
H306     H      0.440290000000     0.356530000000     0.033070000000     0.0363863  
H307     H      0.602930000000     0.324310000000     0.091910000000     0.0419856  
H308     H      0.416490000000     0.299560000000     0.959810000000     0.0185126  
H309     H      0.564790000000     0.297850000000     0.989350000000     0.0378083  
H310     H      0.565720000000     0.304980000000     0.069570000000     0.0371952  
H311     H      0.479330000000     0.362300000000     0.000990000000     0.0404375  
H312     H      0.446580000000     0.345020000000     0.956080000000     0.0468952  
H313     H      0.592800000000     0.342480000000     0.962050000000     0.0395577  
H314     H      0.397270000000     0.316370000000     0.900320000000     0.103076   
H315     H      0.402430000000     0.345180000000     0.917840000000     0.0942073  
H316     H      0.347240000000     0.467480000000     0.990600000000     0.0412135  
H317     H      0.337860000000     0.549400000000     0.904380000000     0.0355838  
H318     H      0.300470000000     0.542000000000     0.027420000000     0.0465172  
H319     H      0.306370000000     0.406650000000     0.891540000000     0.0366163  
H320     H      0.352830000000     0.582200000000     0.944360000000     0.0381893  
H321     H      0.290250000000     0.444240000000     0.010470000000     0.0357609  
H322     H      0.332440000000     0.441050000000     0.891580000000     0.035091   
H323     H      0.294300000000     0.400620000000     0.020940000000     0.0463201  
H324     H      0.352220000000     0.510270000000     0.998560000000     0.0452486  
H325     H      0.330040000000     0.593890000000     0.907780000000     0.0406487  
H326     H      0.281410000000     0.478670000000     0.914640000000     0.0448853  
H327     H      0.306670000000     0.558430000000     0.909360000000     0.0359652  
H328     H      0.337100000000     0.397250000000     0.901220000000     0.0420791  
H329     H      0.321750000000     0.576820000000     0.041790000000     0.0201637  
H330     H      0.321370000000     0.434510000000     0.014350000000     0.038556   
H331     H      0.346210000000     0.432670000000     0.944410000000     0.0375073  
H332     H      0.286330000000     0.521440000000     0.922690000000     0.0405512  
H333     H      0.285460000000     0.553310000000     0.978140000000     0.0471001  
H334     H      0.278090000000     0.408940000000     0.970830000000     0.0375832  
H335     H      0.289430000000     0.599970000000     0.056590000000     0.104805   
H336     H      0.277480000000     0.598410000000     0.002700000000     0.0927833  
In1      In     0.328030000000     0.326720000000     0.985000000000     2.41215    
In2      In     0.335460000000     0.662010000000     0.004230000000     2.40304    
In3      In     0.679490000000     0.325440000000     0.015090000000     2.40088    
In4      In     0.686190000000     0.665950000000     0.004960000000     2.40277    
In5      In     0.837590000000     0.168830000000     0.516220000000     2.39379    
In6      In     0.833450000000     0.829440000000     0.502670000000     2.3984     
In7      In     0.182780000000     0.817970000000     0.501420000000     2.40999    
In8      In     0.186970000000     0.155940000000     0.485330000000     2.41202    
N1       N      0.193170000000     0.889050000000     0.503770000000    -0.181383   
N2       N      0.192780000000     0.938790000000     0.504240000000    -0.110165   
N3       N      0.211500000000     0.037510000000     0.492020000000    -0.113552   
N4       N      0.206530000000     0.086880000000     0.488020000000    -0.167965   
N5       N      0.215160000000     0.889330000000     0.575750000000    -0.198152   
N6       N      0.904900000000     0.810760000000     0.496390000000    -0.181165   
N7       N      0.955960000000     0.803470000000     0.495360000000    -0.110713   
N8       N      0.058130000000     0.818940000000     0.487070000000    -0.113277   
N9       N      0.109040000000     0.817250000000     0.493300000000    -0.169505   
N10      N      0.904170000000     0.805100000000     0.413920000000    -0.198577   
N11      N      0.826250000000     0.901250000000     0.503260000000    -0.183396   
N12      N      0.824710000000     0.951210000000     0.499770000000    -0.110466   
N13      N      0.819780000000     0.049500000000     0.539060000000    -0.113524   
N14      N      0.824960000000     0.098910000000     0.537050000000    -0.168451   
N15      N      0.781550000000     0.900600000000     0.500880000000    -0.198335   
N16      N      0.911270000000     0.171130000000     0.504330000000    -0.181374   
N17      N      0.962310000000     0.172150000000     0.491910000000    -0.110375   
N18      N      0.062510000000     0.147940000000     0.478840000000    -0.113522   
N19      N      0.113620000000     0.148270000000     0.480520000000    -0.168952   
N20      N      0.918170000000     0.163580000000     0.585180000000    -0.198836   
N21      N      0.712950000000     0.702280000000     0.897600000000    -0.181482   
N22      N      0.731600000000     0.725370000000     0.820310000000    -0.110352   
N23      N      0.790900000000     0.772730000000     0.691580000000    -0.113349   
N24      N      0.809680000000     0.796110000000     0.615610000000    -0.170028   
N25      N      0.709670000000     0.740900000000     0.934860000000    -0.198167   
N26      N      0.721080000000     0.696750000000     0.110840000000    -0.182268   
N27      N      0.742580000000     0.719100000000     0.186360000000    -0.110569   
N28      N      0.773450000000     0.785260000000     0.318880000000    -0.113588   
N29      N      0.795910000000     0.807460000000     0.392690000000    -0.168005   
N30      N      0.754560000000     0.711740000000     0.063870000000    -0.198163   
N31      N      0.717200000000     0.296030000000     0.911550000000    -0.182311   
N32      N      0.738790000000     0.277100000000     0.833290000000    -0.11025    
N33      N      0.789230000000     0.222160000000     0.703240000000    -0.113291   
N34      N      0.808360000000     0.201080000000     0.625530000000    -0.168979   
N35      N      0.756250000000     0.314360000000     0.931180000000    -0.198012   
N36      N      0.707480000000     0.289230000000     0.122250000000    -0.18101    
N37      N      0.727840000000     0.266580000000     0.198900000000    -0.110503   
N38      N      0.790990000000     0.222380000000     0.326420000000    -0.11335    
N39      N      0.811840000000     0.200460000000     0.402490000000    -0.168902   
N40      N      0.702750000000     0.250360000000     0.086520000000    -0.198042   
N41      N      0.698370000000     0.595020000000     0.996820000000    -0.183243   
N42      N      0.702070000000     0.545150000000     0.990430000000    -0.110583   
N43      N      0.684950000000     0.446330000000     0.008010000000    -0.113205   
N44      N      0.685330000000     0.396790000000     0.008190000000    -0.167695   
N45      N      0.717280000000     0.592720000000     0.072250000000    -0.198274   
N46      N      0.213510000000     0.785370000000     0.609980000000    -0.182147   
N47      N      0.234370000000     0.759690000000     0.682350000000    -0.110398   
N48      N      0.268110000000     0.726500000000     0.852810000000    -0.113617   
N49      N      0.293510000000     0.702710000000     0.921740000000    -0.170242   
N50      N      0.244600000000     0.816060000000     0.620630000000    -0.198278   
N51      N      0.218870000000     0.785500000000     0.399470000000    -0.18162    
N52      N      0.239980000000     0.762340000000     0.325030000000    -0.110222   
N53      N      0.299700000000     0.710600000000     0.204060000000    -0.113619   
N54      N      0.319040000000     0.688890000000     0.127070000000    -0.168376   
N55      N      0.249810000000     0.816640000000     0.392670000000    -0.198317   
N56      N      0.409400000000     0.660990000000     0.997260000000    -0.182262   
N57      N      0.460850000000     0.658780000000     0.996630000000    -0.11041    
N58      N      0.562100000000     0.677380000000     0.016510000000    -0.113485   
N59      N      0.613160000000     0.675410000000     0.014490000000    -0.168889   
N60      N      0.410990000000     0.687350000000     0.931170000000    -0.198399   
N61      N      0.291860000000     0.290170000000     0.887620000000    -0.1826     
N62      N      0.268610000000     0.262420000000     0.821030000000    -0.110471   
N63      N      0.234410000000     0.222980000000     0.656460000000    -0.113325   
N64      N      0.214600000000     0.195090000000     0.587530000000    -0.168079   
N65      N      0.258150000000     0.318660000000     0.882470000000    -0.198224   
N66      N      0.303930000000     0.292740000000     0.097110000000    -0.181332   
N67      N      0.279090000000     0.267550000000     0.164460000000    -0.109988   
N68      N      0.242870000000     0.222520000000     0.322330000000    -0.113236   
N69      N      0.218840000000     0.194750000000     0.386760000000    -0.168687   
N70      N      0.336750000000     0.263620000000     0.100420000000    -0.198341   
N71      N      0.401730000000     0.327800000000     0.997220000000    -0.182049   
N72      N      0.452080000000     0.322250000000     0.012470000000    -0.110112   
N73      N      0.555120000000     0.330540000000     0.020150000000    -0.113108   
N74      N      0.605730000000     0.324770000000     0.019990000000    -0.169095   
N75      N      0.409330000000     0.328030000000     0.915870000000    -0.198551   
N76      N      0.320910000000     0.593110000000     0.977630000000    -0.180627   
N77      N      0.322610000000     0.543980000000     0.969200000000    -0.109637   
N78      N      0.309520000000     0.444910000000     0.948530000000    -0.113622   
N79      N      0.313190000000     0.395610000000     0.958320000000    -0.168925   
N80      N      0.286400000000     0.589290000000     0.028570000000    -0.199078   
O1       O      0.306570000000     0.325190000000     0.050320000000    -0.496893   
O2       O      0.326100000000     0.294620000000     0.031300000000    -0.515301   
O3       O      0.294190000000     0.318480000000     0.943400000000    -0.519926   
O4       O      0.331070000000     0.359950000000     0.941620000000    -0.511685   
O5       O      0.362990000000     0.333880000000     0.024430000000    -0.513884   
O6       O      0.310980000000     0.362140000000     0.002290000000    -0.495615   
O7       O      0.325890000000     0.298750000000     0.930100000000    -0.502469   
O8       O      0.366140000000     0.321070000000     0.957830000000    -0.50562    
O9       O      0.300120000000     0.669940000000     0.966260000000    -0.513625   
O10      O      0.329090000000     0.694260000000     0.959430000000    -0.503503   
O11      O      0.317720000000     0.659780000000     0.073300000000    -0.49273    
O12      O      0.319920000000     0.626170000000     0.022660000000    -0.497092   
O13      O      0.371170000000     0.668030000000     0.967370000000    -0.506355   
O14      O      0.336300000000     0.629690000000     0.958460000000    -0.506121   
O15      O      0.336620000000     0.691260000000     0.056930000000    -0.505997   
O16      O      0.373030000000     0.654650000000     0.033830000000    -0.513374   
O17      O      0.684990000000     0.291730000000     0.056320000000    -0.51134    
O18      O      0.701220000000     0.323100000000     0.080390000000    -0.495298   
O19      O      0.684480000000     0.298280000000     0.959580000000    -0.503672   
O20      O      0.642160000000     0.320750000000     0.983130000000    -0.499782   
O21      O      0.692760000000     0.360830000000     0.041980000000    -0.4895     
O22      O      0.643520000000     0.327040000000     0.053430000000    -0.509152   
O23      O      0.712330000000     0.323570000000     0.968240000000    -0.515935   
O24      O      0.674080000000     0.360730000000     0.979290000000    -0.504121   
O25      O      0.719890000000     0.681210000000     0.038950000000    -0.511781   
O26      O      0.687360000000     0.680520000000     0.076470000000    -0.502602   
O27      O      0.706210000000     0.668000000000     0.938020000000    -0.506409   
O28      O      0.680370000000     0.629730000000     0.973130000000    -0.509858   
O29      O      0.649850000000     0.661330000000     0.040710000000    -0.500451   
O30      O      0.704480000000     0.631870000000     0.028390000000    -0.518076   
O31      O      0.692090000000     0.699720000000     0.964940000000    -0.507454   
O32      O      0.649760000000     0.679230000000     0.977890000000    -0.502047   
O33      O      0.821070000000     0.167770000000     0.445620000000    -0.498648   
O34      O      0.827630000000     0.201380000000     0.474430000000    -0.509147   
O35      O      0.807590000000     0.173680000000     0.568420000000    -0.507595   
O36      O      0.813820000000     0.135790000000     0.511080000000    -0.489861   
O37      O      0.872500000000     0.167870000000     0.474840000000    -0.50707    
O38      O      0.848650000000     0.132290000000     0.541160000000    -0.508611   
O39      O      0.837520000000     0.197170000000     0.570680000000    -0.495915   
O40      O      0.875640000000     0.172580000000     0.545270000000    -0.499745   
O41      O      0.829190000000     0.824380000000     0.427010000000    -0.495211   
O42      O      0.800630000000     0.812290000000     0.469190000000    -0.503274   
O43      O      0.826450000000     0.796380000000     0.544710000000    -0.507332   
O44      O      0.866220000000     0.814250000000     0.465940000000    -0.499027   
O45      O      0.811440000000     0.863380000000     0.493360000000    -0.51391    
O46      O      0.871420000000     0.825930000000     0.532770000000    -0.502829   
O47      O      0.815680000000     0.829290000000     0.571990000000    -0.511287   
O48      O      0.848210000000     0.866840000000     0.512290000000    -0.508316   
O49      O      0.213900000000     0.811860000000     0.550610000000    -0.514664   
O50      O      0.182170000000     0.791250000000     0.559200000000    -0.506038   
O51      O      0.191470000000     0.785790000000     0.458210000000    -0.505936   
O52      O      0.147160000000     0.810890000000     0.463930000000    -0.506337   
O53      O      0.191230000000     0.852330000000     0.537730000000    -0.507382   
O54      O      0.145060000000     0.822550000000     0.531540000000    -0.508903   
O55      O      0.209500000000     0.817850000000     0.443280000000    -0.508648   
O56      O      0.184570000000     0.854070000000     0.467510000000    -0.502333   
O57      O      0.189020000000     0.188370000000     0.439640000000    -0.504107   
O58      O      0.215120000000     0.161280000000     0.430280000000    -0.502189   
O59      O      0.183590000000     0.184040000000     0.539720000000    -0.50063    
O60      O      0.150170000000     0.149970000000     0.518310000000    -0.506641   
O61      O      0.193740000000     0.120590000000     0.451460000000    -0.501974   
O62      O      0.150780000000     0.155140000000     0.447520000000    -0.50548    
O63      O      0.217050000000     0.165570000000     0.534730000000    -0.502485   
O64      O      0.199050000000     0.122560000000     0.522210000000    -0.500154   


