data_structure

_audit_creation_method RASPA-1.0
_audit_creation_date 2023-5-25
_audit_author_name 'Poobodin Mano'

_cell_length_a    35.1479
_cell_length_b    48.2952
_cell_length_c    46.6178
_cell_angle_alpha 90
_cell_angle_beta  90
_cell_angle_gamma 90
_cell_volume      79132.5

_symmetry_cell_setting          triclinic
_symmetry_space_group_name_Hall 'P 1'
_symmetry_space_group_name_H-M  'P 1'
_symmetry_Int_Tables_number     1

_symmetry_equiv_pos_as_xyz 'x,y,z'

loop_
_atom_site_label
_atom_site_type_symbol
_atom_site_fract_x
_atom_site_fract_y
_atom_site_fract_z
_atom_site_charge
C1       C      0.061770000000     0.399110000000     0.851460000000     0.405745   
C2       C      0.987670000000     0.390180000000     0.779960000000     0.404472   
C3       C      0.055970000000     0.320450000000     0.788440000000     0.405156   
C4       C      0.989160000000     0.333060000000     0.864080000000     0.405533   
C5       C      0.224440000000     0.511120000000     0.090930000000     0.404049   
C6       C      0.297260000000     0.524410000000     0.162810000000     0.404644   
C7       C      0.293330000000     0.579820000000     0.077410000000     0.404891   
C8       C      0.225570000000     0.590940000000     0.152570000000     0.403303   
C9       C      0.473740000000     0.790630000000     0.930430000000     0.40633    
C10      C      0.540690000000     0.790670000000     0.855260000000     0.406559   
C11      C      0.472010000000     0.861720000000     0.858680000000     0.40331    
C12      C      0.545130000000     0.859090000000     0.930490000000     0.407385   
C13      C      0.798170000000     0.150870000000     0.043770000000     0.406322   
C14      C      0.728010000000     0.083840000000     0.053540000000     0.404666   
C15      C      0.797410000000     0.094220000000     0.128370000000     0.406733   
C16      C      0.727370000000     0.162350000000     0.116980000000     0.405012   
C17      C      0.492220000000     0.348310000000     0.347850000000     0.40378    
C18      C      0.489160000000     0.281460000000     0.422010000000     0.404105   
C19      C      0.570080000000     0.284920000000     0.354920000000     0.408765   
C20      C      0.554300000000     0.354320000000     0.427870000000     0.405621   
C21      C      0.785760000000     0.590440000000     0.632040000000     0.40558    
C22      C      0.708660000000     0.655100000000     0.625570000000     0.406049   
C23      C      0.786610000000     0.655680000000     0.555600000000     0.403351   
C24      C      0.720550000000     0.583680000000     0.554410000000     0.407116   
C25      C      0.050520000000     0.816810000000     0.281370000000     0.407632   
C26      C      0.978910000000     0.885860000000     0.279440000000     0.40495    
C27      C      0.977140000000     0.814690000000     0.351440000000     0.405739   
C28      C      0.044800000000     0.887400000000     0.354540000000     0.405961   
C29      C      0.212220000000     0.087330000000     0.664840000000     0.404073   
C30      C      0.283350000000     0.016990000000     0.652660000000     0.406949   
C31      C      0.214950000000     0.028690000000     0.581620000000     0.402464   
C32      C      0.285630000000     0.100210000000     0.596890000000     0.404456   
C33      C      0.117570000000     0.917700000000     0.402190000000    -0.0320221  
C34      C      0.140270000000     0.002350000000     0.532210000000    -0.0308134  
C35      C      0.221560000000     0.994930000000     0.542470000000    -0.00488775 
C36      C      0.156380000000     0.008130000000     0.562110000000    -0.0052489  
C37      C      0.133650000000     0.943040000000     0.490710000000    -0.0536651  
C38      C      0.122820000000     0.977500000000     0.443190000000    -0.0533237  
C39      C      0.145240000000     0.970750000000     0.492090000000     0.0617974  
C40      C      0.202320000000     0.989790000000     0.513540000000    -0.0307903  
C41      C      0.111400000000     0.949740000000     0.441770000000     0.061258   
C42      C      0.054870000000     0.930620000000     0.419610000000    -0.0449084  
C43      C      0.116840000000     0.932540000000     0.465820000000    -0.0556076  
C44      C      0.036360000000     0.924360000000     0.390480000000     0.0424242  
C45      C      0.102230000000     0.911150000000     0.372250000000    -0.00384456 
C46      C      0.139590000000     0.988010000000     0.468110000000    -0.0560066  
C47      C      0.899750000000     0.783140000000     0.394100000000    -0.0321555  
C48      C      0.864620000000     0.685810000000     0.512170000000    -0.030856   
C49      C      0.783520000000     0.694810000000     0.521860000000    -0.00490179 
C50      C      0.846950000000     0.677100000000     0.540750000000    -0.00500392 
C51      C      0.876820000000     0.749130000000     0.478620000000    -0.0537431  
C52      C      0.887960000000     0.719800000000     0.427590000000    -0.0532122  
C53      C      0.863290000000     0.721950000000     0.476300000000     0.061974   
C54      C      0.804160000000     0.702750000000     0.494160000000    -0.0308675  
C55      C      0.901460000000     0.746990000000     0.429900000000     0.061323   
C56      C      0.960430000000     0.766420000000     0.412010000000    -0.044947   
C57      C      0.895760000000     0.761630000000     0.455670000000    -0.0556141  
C58      C      0.981160000000     0.774870000000     0.384370000000     0.0425949  
C59      C      0.917250000000     0.792060000000     0.365540000000    -0.00356132 
C60      C      0.869010000000     0.707290000000     0.450540000000    -0.0561743  
C61      C      0.408630000000     0.245970000000     0.458320000000    -0.0320334  
C62      C      0.365550000000     0.139610000000     0.565920000000    -0.0307724  
C63      C      0.282670000000     0.142590000000     0.567490000000    -0.00504369 
C64      C      0.344090000000     0.127880000000     0.591730000000    -0.00517222 
C65      C      0.376080000000     0.205130000000     0.537490000000    -0.0536861  
C66      C      0.398440000000     0.179890000000     0.486200000000    -0.0532581  
C67      C      0.365870000000     0.177570000000     0.532190000000     0.0618348  
C68      C      0.306750000000     0.153830000000     0.542750000000    -0.0309561  
C69      C      0.408500000000     0.207490000000     0.491450000000     0.0615368  
C70      C      0.467700000000     0.230780000000     0.480060000000    -0.0447742  
C71      C      0.397250000000     0.220040000000     0.517360000000    -0.0557447  
C72      C      0.491500000000     0.241560000000     0.454800000000     0.0418028  
C73      C      0.429060000000     0.257350000000     0.431900000000    -0.00364411 
C74      C      0.377350000000     0.164960000000     0.506350000000    -0.0560044  
C75      C      0.647750000000     0.537920000000     0.523920000000    -0.0320702  
C76      C      0.625390000000     0.399240000000     0.460980000000    -0.0306417  
C77      C      0.542830000000     0.393290000000     0.461130000000    -0.00550339 
C78      C      0.607440000000     0.370490000000     0.458270000000    -0.00563368 
C79      C      0.625760000000     0.449910000000     0.513340000000    -0.0536851  
C80      C      0.646440000000     0.487640000000     0.470580000000    -0.0533003  
C81      C      0.618370000000     0.443570000000     0.484550000000     0.0617136  
C82      C      0.563080000000     0.421230000000     0.463780000000    -0.0307723  
C83      C      0.653760000000     0.493990000000     0.499370000000     0.0611543  
C84      C      0.709790000000     0.515980000000     0.519240000000    -0.0449057  
C85      C      0.643320000000     0.474860000000     0.520780000000    -0.0556618  
C86      C      0.730500000000     0.543860000000     0.522050000000     0.0424607  
C87      C      0.665610000000     0.566710000000     0.526500000000    -0.00386471 
C88      C      0.628920000000     0.462660000000     0.463130000000    -0.0561008  
C89      C      0.873970000000     0.054520000000     0.161550000000    -0.0320629  
C90      C      0.903670000000     0.929760000000     0.248870000000    -0.0307561  
C91      C      0.984680000000     0.919700000000     0.240090000000    -0.00489874 
C92      C      0.920230000000     0.901120000000     0.255190000000    -0.00523248 
C93      C      0.895030000000     0.969320000000     0.187350000000    -0.0537763  
C94      C      0.884370000000     0.015090000000     0.223230000000    -0.0533737  
C95      C      0.907690000000     0.968200000000     0.215800000000     0.0620413  
C96      C      0.965500000000     0.947590000000     0.234380000000    -0.0308577  
C97      C      0.871590000000     0.016170000000     0.194800000000     0.0613202  
C98      C      0.812880000000     0.035640000000     0.176770000000    -0.0449425  
C99      C      0.877130000000     0.993060000000     0.176840000000    -0.0555564  
C100     C      0.792390000000     0.062950000000     0.170100000000     0.0426605  
C101     C      0.856190000000     0.082670000000     0.154780000000    -0.00371912 
C102     C      0.902320000000     0.991330000000     0.233730000000    -0.056061   
C103     C      0.642460000000     0.269660000000     0.301150000000    -0.0321779  
C104     C      0.659890000000     0.186550000000     0.169730000000    -0.0306941  
C105     C      0.730670000000     0.206200000000     0.144320000000    -0.00519564 
C106     C      0.668250000000     0.181320000000     0.137980000000    -0.00546254 
C107     C      0.645760000000     0.244020000000     0.211610000000    -0.0538296  
C108     C      0.664450000000     0.211540000000     0.259260000000    -0.0532034  
C109     C      0.667430000000     0.219970000000     0.207830000000     0.0619989  
C110     C      0.720400000000     0.210770000000     0.175870000000    -0.0308845  
C111     C      0.642670000000     0.235550000000     0.263020000000     0.0613146  
C112     C      0.587540000000     0.239670000000     0.293600000000    -0.0449385  
C113     C      0.633320000000     0.251780000000     0.238920000000    -0.0556086  
C114     C      0.574720000000     0.243000000000     0.324860000000     0.0422815  
C115     C      0.632150000000     0.273950000000     0.332740000000    -0.00367098 
C116     C      0.676710000000     0.203700000000     0.231920000000    -0.0560577  
C117     C      0.299750000000     0.969220000000     0.712370000000    -0.032188   
C118     C      0.454870000000     0.907100000000     0.796320000000    -0.0309104  
C119     C      0.412340000000     0.884920000000     0.844900000000    -0.00544017 
C120     C      0.475750000000     0.900330000000     0.824250000000    -0.00507826 
C121     C      0.384490000000     0.953880000000     0.778180000000    -0.0536585  
C122     C      0.369930000000     0.921340000000     0.729780000000    -0.0533539  
C123     C      0.396190000000     0.926170000000     0.777810000000     0.0619     
C124     C      0.394190000000     0.892330000000     0.816110000000    -0.0306056  
C125     C      0.358080000000     0.949030000000     0.730210000000     0.0613296  
C126     C      0.360660000000     0.982150000000     0.691350000000    -0.04475    
C127     C      0.365630000000     0.965310000000     0.754620000000    -0.0556976  
C128     C      0.341790000000     0.990460000000     0.662930000000     0.0421951  
C129     C      0.278380000000     0.976570000000     0.684830000000    -0.00350533 
C130     C      0.388880000000     0.909920000000     0.753330000000    -0.0561316  
C131     C      0.609470000000     0.766230000000     0.801270000000    -0.0321258  
C132     C      0.633330000000     0.675740000000     0.675710000000    -0.0309245  
C133     C      0.705730000000     0.697470000000     0.655030000000    -0.00504758 
C134     C      0.646330000000     0.669450000000     0.645040000000    -0.0052922  
C135     C      0.613380000000     0.736730000000     0.713240000000    -0.0537992  
C136     C      0.623350000000     0.705940000000     0.763500000000    -0.0532551  
C137     C      0.633110000000     0.711560000000     0.712140000000     0.0619261  
C138     C      0.690650000000     0.702510000000     0.685340000000    -0.0307956  
C139     C      0.603740000000     0.731160000000     0.764610000000     0.0612821  
C140     C      0.548270000000     0.744410000000     0.792360000000    -0.0448855  
C141     C      0.598830000000     0.746560000000     0.739220000000    -0.0556415  
C142     C      0.534520000000     0.750440000000     0.822990000000     0.0423413  
C143     C      0.598930000000     0.772840000000     0.832350000000    -0.00363628 
C144     C      0.638050000000     0.696170000000     0.737540000000    -0.0560854  
C145     C      0.562140000000     0.922970000000     0.970450000000    -0.0320494  
C146     C      0.714010000000     0.016840000000     0.017420000000    -0.0307518  
C147     C      0.669500000000     0.066150000000     0.030840000000    -0.0051771  
C148     C      0.733810000000     0.044950000000     0.019610000000    -0.00505532 
C149     C      0.644210000000     0.990170000000     0.972540000000    -0.0536011  
C150     C      0.632840000000     0.949060000000     0.013920000000    -0.0533454  
C151     C      0.656390000000     0.994700000000     0.000740000000     0.0619305  
C152     C      0.652320000000     0.037160000000     0.028200000000    -0.0307064  
C153     C      0.620680000000     0.944520000000     0.985690000000     0.061396   
C154     C      0.623060000000     0.902660000000     0.957090000000    -0.0447454  
C155     C      0.626440000000     0.965340000000     0.964990000000    -0.0556248  
C156     C      0.605190000000     0.873860000000     0.953390000000     0.0418881  
C157     C      0.541930000000     0.895060000000     0.967980000000    -0.0035509  
C158     C      0.650520000000     0.973930000000     0.021490000000    -0.0560858  
C159     C      0.065620000000     0.754210000000     0.238350000000    -0.0322067  
C160     C      0.213450000000     0.656720000000     0.191800000000    -0.0307911  
C161     C      0.166560000000     0.610330000000     0.172860000000    -0.00530549 
C162     C      0.231340000000     0.628030000000     0.188550000000    -0.00509957 
C163     C      0.141650000000     0.683140000000     0.235240000000    -0.0536287  
C164     C      0.137870000000     0.727590000000     0.196890000000    -0.0533897  
C165     C      0.156240000000     0.680100000000     0.207470000000     0.0618974  
C166     C      0.151450000000     0.639810000000     0.176760000000    -0.0306887  
C167     C      0.123430000000     0.730670000000     0.224710000000     0.0614256  
C168     C      0.126570000000     0.769960000000     0.256990000000    -0.0447399  
C169     C      0.125270000000     0.708150000000     0.243860000000    -0.0556896  
C170     C      0.111330000000     0.799370000000     0.261950000000     0.0419621  
C171     C      0.047950000000     0.782920000000     0.241870000000    -0.00322525 
C172     C      0.154080000000     0.702520000000     0.188220000000    -0.0561077  
C173     C      0.459550000000     0.727640000000     0.973490000000    -0.0321951  
C174     C      0.307550000000     0.638470000000     0.029870000000    -0.0308494  
C175     C      0.350910000000     0.590460000000     0.049060000000    -0.00547465 
C176     C      0.287370000000     0.610960000000     0.035590000000    -0.00520629 
C177     C      0.377930000000     0.660360000000     0.982950000000    -0.0535631  
C178     C      0.389820000000     0.704850000000     0.020310000000    -0.0535109  
C179     C      0.365730000000     0.658400000000     0.011470000000     0.0617753  
C180     C      0.369060000000     0.618640000000     0.042960000000    -0.0306271  
C181     C      0.401880000000     0.706850000000     0.991770000000     0.0616505  
C182     C      0.397840000000     0.746230000000     0.959820000000    -0.0447342  
C183     C      0.395910000000     0.684340000000     0.973090000000    -0.0558139  
C184     C      0.414670000000     0.774970000000     0.953890000000     0.042068   
C185     C      0.479130000000     0.755520000000     0.968590000000    -0.00321389 
C186     C      0.371930000000     0.680850000000     0.030190000000    -0.0559418  
C187     C      0.474990000000     0.404520000000     0.295390000000    -0.0323199  
C188     C      0.317820000000     0.470850000000     0.217040000000    -0.0308542  
C189     C      0.356420000000     0.517650000000     0.190260000000    -0.00511498 
C190     C      0.294490000000     0.495480000000     0.206300000000    -0.00491378 
C191     C      0.386830000000     0.462760000000     0.269270000000    -0.0537957  
C192     C      0.407490000000     0.413620000000     0.241610000000    -0.0533042  
C193     C      0.376890000000     0.458790000000     0.240480000000     0.0619362  
C194     C      0.377130000000     0.492070000000     0.201630000000    -0.0307666  
C195     C      0.417320000000     0.417560000000     0.270430000000     0.0613445  
C196     C      0.414540000000     0.383880000000     0.308750000000    -0.0445218  
C197     C      0.406860000000     0.442360000000     0.284220000000    -0.0557425  
C198     C      0.433870000000     0.357720000000     0.320350000000     0.0418488  
C199     C      0.497350000000     0.379410000000     0.306170000000    -0.0033139  
C200     C      0.387450000000     0.434020000000     0.226660000000    -0.0561637  
C201     C      0.063010000000     0.253820000000     0.750450000000    -0.0319969  
C202     C      0.201190000000     0.146060000000     0.711860000000    -0.030766   
C203     C      0.152070000000     0.104140000000     0.686300000000    -0.00581837 
C204     C      0.215150000000     0.116210000000     0.708600000000    -0.00545335 
C205     C      0.129830000000     0.178410000000     0.749400000000    -0.053797   
C206     C      0.134260000000     0.222090000000     0.710140000000    -0.0533632  
C207     C      0.145680000000     0.173780000000     0.722250000000     0.061781   
C208     C      0.139820000000     0.134300000000     0.690390000000    -0.0306499  
C209     C      0.118110000000     0.226660000000     0.737190000000     0.0613128  
C210     C      0.125930000000     0.267340000000     0.767000000000    -0.044784   
C211     C      0.116240000000     0.204620000000     0.756930000000    -0.0557045  
C212     C      0.113970000000     0.297780000000     0.770050000000     0.0420406  
C213     C      0.048250000000     0.283540000000     0.752410000000    -0.00374458 
C214     C      0.148080000000     0.195930000000     0.702680000000    -0.0560504  
C215     C      0.876220000000     0.186230000000     0.005880000000    -0.0321988  
C216     C      0.911860000000     0.299250000000     0.903890000000    -0.030802   
C217     C      0.994590000000     0.303070000000     0.906680000000    -0.00484622 
C218     C      0.931820000000     0.325550000000     0.893540000000    -0.00522505 
C219     C      0.904110000000     0.266380000000     0.969400000000    -0.0537076  
C220     C      0.884380000000     0.218300000000     0.939450000000    -0.0534349  
C221     C      0.914040000000     0.263800000000     0.940440000000     0.0618325  
C222     C      0.972160000000     0.277670000000     0.916540000000    -0.0309571  
C223     C      0.874580000000     0.220840000000     0.968440000000     0.0614641  
C224     C      0.815970000000     0.206620000000     0.991310000000    -0.0448378  
C225     C      0.884490000000     0.245150000000     0.983370000000    -0.0557345  
C226     C      0.793540000000     0.181140000000     0.001340000000     0.0425386  
C227     C      0.856760000000     0.159750000000     0.016260000000    -0.00351832 
C228     C      0.903910000000     0.239570000000     0.925460000000    -0.0560595  
C229     C      0.865120000000     0.552520000000     0.664350000000    -0.0319435  
C230     C      0.908160000000     0.427110000000     0.747040000000    -0.0307628  
C231     C      0.990470000000     0.423660000000     0.739950000000    -0.0049715  
C232     C      0.928780000000     0.399810000000     0.752900000000    -0.00514108 
C233     C      0.895550000000     0.468160000000     0.687020000000    -0.0537502  
C234     C      0.877730000000     0.511550000000     0.724420000000    -0.0532018  
C235     C      0.907630000000     0.466900000000     0.715610000000     0.0620045  
C236     C      0.967600000000     0.450110000000     0.734470000000    -0.030888   
C237     C      0.865660000000     0.512800000000     0.695820000000     0.0613152  
C238     C      0.805740000000     0.529500000000     0.676820000000    -0.0450143  
C239     C      0.874740000000     0.490880000000     0.677110000000    -0.0556259  
C240     C      0.782530000000     0.555850000000     0.670980000000     0.0425638  
C241     C      0.844720000000     0.579900000000     0.658560000000    -0.00372427 
C242     C      0.898560000000     0.488830000000     0.734330000000    -0.056073   
C243     C      0.135100000000     0.419550000000     0.901250000000    -0.0318124  
C244     C      0.152970000000     0.487780000000     0.041610000000    -0.0306853  
C245     C      0.228100000000     0.469490000000     0.060070000000    -0.00566223 
C246     C      0.164730000000     0.490050000000     0.073140000000    -0.00568597 
C247     C      0.141110000000     0.434230000000     0.993260000000    -0.0537086  
C248     C      0.149620000000     0.473410000000     0.949530000000    -0.0533649  
C249     C      0.159330000000     0.459380000000     0.999150000000     0.0618659  
C250     C      0.214690000000     0.467770000000     0.028890000000    -0.0306052  
C251     C      0.131330000000     0.448280000000     0.943660000000     0.0612541  
C252     C      0.074920000000     0.441190000000     0.914890000000    -0.0448771  
C253     C      0.127160000000     0.428650000000     0.965800000000    -0.055645   
C254     C      0.060010000000     0.439540000000     0.883980000000     0.0422777  
C255     C      0.122690000000     0.417620000000     0.869850000000    -0.00427319 
C256     C      0.163550000000     0.479000000000     0.977020000000    -0.0560527  
H1       H      0.148240000000     0.009510000000     0.468640000000     0.04153    
H2       H      0.147640000000     0.924640000000     0.400030000000     0.0363817  
H3       H      0.038230000000     0.947020000000     0.430790000000     0.0412972  
H4       H      0.226150000000     0.974660000000     0.553260000000     0.0383574  
H5       H      0.108080000000     0.929080000000     0.357970000000     0.0383997  
H6       H      0.110200000000     0.995480000000     0.534590000000     0.0361676  
H7       H      0.218650000000     0.973530000000     0.501930000000     0.036061   
H8       H      0.141340000000     0.026330000000     0.571340000000     0.0458199  
H9       H      0.008330000000     0.914510000000     0.394760000000     0.0361453  
H10      H      0.118760000000     0.990970000000     0.424880000000     0.044912   
H11      H      0.118070000000     0.893070000000     0.363530000000     0.0464337  
H12      H      0.137790000000     0.929540000000     0.508990000000     0.0455763  
H13      H      0.117210000000     0.898460000000     0.415370000000     0.0387871  
H14      H      0.250010000000     0.004290000000     0.538600000000     0.0442285  
H15      H      0.140480000000     0.021850000000     0.519440000000     0.0384531  
H16      H      0.203320000000     0.009140000000     0.500550000000     0.0381889  
H17      H      0.108210000000     0.911030000000     0.465310000000     0.0414301  
H18      H      0.053590000000     0.911630000000     0.433130000000     0.0407991  
H19      H      0.150250000000     0.990050000000     0.576130000000     0.0390521  
H20      H      0.059990000000     0.970970000000     0.368820000000     0.0379086  
H21      H      0.858860000000     0.686260000000     0.448200000000     0.0417597  
H22      H      0.869450000000     0.777530000000     0.390280000000     0.0362934  
H23      H      0.975360000000     0.748470000000     0.421940000000     0.0413275  
H24      H      0.780010000000     0.713700000000     0.535240000000     0.038833   
H25      H      0.911030000000     0.775940000000     0.349180000000     0.038376   
H26      H      0.894970000000     0.691270000000     0.515990000000     0.0362928  
H27      H      0.789340000000     0.720890000000     0.484540000000     0.0359649  
H28      H      0.860690000000     0.657550000000     0.547940000000     0.0465099  
H29      H      0.009340000000     0.783450000000     0.390610000000     0.0358287  
H30      H      0.892140000000     0.708300000000     0.407890000000     0.0449096  
H31      H      0.903170000000     0.811520000000     0.358440000000     0.0462756  
H32      H      0.872640000000     0.760630000000     0.498310000000     0.0456287  
H33      H      0.900490000000     0.800900000000     0.409330000000     0.0387654  
H34      H      0.754600000000     0.687130000000     0.516330000000     0.0438189  
H35      H      0.863720000000     0.668000000000     0.497000000000     0.0387146  
H36      H      0.802380000000     0.685210000000     0.478700000000     0.0382989  
H37      H      0.905870000000     0.782680000000     0.458010000000     0.0414246  
H38      H      0.961890000000     0.783920000000     0.427530000000     0.0407282  
H39      H      0.853360000000     0.693260000000     0.557050000000     0.0396453  
H40      H      0.956590000000     0.731680000000     0.356630000000     0.0378371  
H41      H      0.370000000000     0.143660000000     0.501780000000     0.0418409  
H42      H      0.379510000000     0.239420000000     0.451790000000     0.0363448  
H43      H      0.482650000000     0.212990000000     0.490280000000     0.0414879  
H44      H      0.274780000000     0.160100000000     0.581790000000     0.0369784  
H45      H      0.425910000000     0.242260000000     0.414040000000     0.0399681  
H46      H      0.394010000000     0.146780000000     0.573330000000     0.0362876  
H47      H      0.291400000000     0.171630000000     0.532940000000     0.0357257  
H48      H      0.359240000000     0.109080000000     0.599430000000     0.0468056  
H49      H      0.517680000000     0.251190000000     0.463770000000     0.0361499  
H50      H      0.406960000000     0.169980000000     0.466380000000     0.0453224  
H51      H      0.414720000000     0.276830000000     0.425180000000     0.0463669  
H52      H      0.367550000000     0.215050000000     0.557310000000     0.0453167  
H53      H      0.405820000000     0.262740000000     0.474590000000     0.0381109  
H54      H      0.255920000000     0.133780000000     0.558600000000     0.0433933  
H55      H      0.369870000000     0.122870000000     0.549810000000     0.0392439  
H56      H      0.309920000000     0.137420000000     0.526140000000     0.0384781  
H57      H      0.404720000000     0.241330000000     0.521950000000     0.0413642  
H58      H      0.465300000000     0.247430000000     0.496490000000     0.0405003  
H59      H      0.344730000000     0.143430000000     0.609310000000     0.0383728  
H60      H      0.475310000000     0.199690000000     0.421910000000     0.0382086  
H61      H      0.623660000000     0.458250000000     0.440720000000     0.0416442  
H62      H      0.619190000000     0.540160000000     0.513860000000     0.0361732  
H63      H      0.727260000000     0.501650000000     0.505940000000     0.0412555  
H64      H      0.535230000000     0.385970000000     0.483010000000     0.0370786  
H65      H      0.664390000000     0.576980000000     0.505180000000     0.0376579  
H66      H      0.653390000000     0.397030000000     0.471910000000     0.0361547  
H67      H      0.544910000000     0.435320000000     0.476800000000     0.0357498  
H68      H      0.625580000000     0.357530000000     0.444080000000     0.0463837  
H69      H      0.756680000000     0.540230000000     0.534910000000     0.0365213  
H70      H      0.654400000000     0.502120000000     0.453880000000     0.0447294  
H71      H      0.648230000000     0.579270000000     0.541590000000     0.0460873  
H72      H      0.617890000000     0.435410000000     0.530040000000     0.045359   
H73      H      0.643880000000     0.529090000000     0.545790000000     0.0391481  
H74      H      0.515960000000     0.396230000000     0.448930000000     0.0438128  
H75      H      0.630450000000     0.407820000000     0.439130000000     0.0391763  
H76      H      0.566390000000     0.430420000000     0.442020000000     0.038576   
H77      H      0.648770000000     0.479200000000     0.543180000000     0.0415545  
H78      H      0.707090000000     0.506580000000     0.540960000000     0.0411743  
H79      H      0.607000000000     0.360670000000     0.479840000000     0.0380319  
H80      H      0.715500000000     0.555990000000     0.468800000000     0.0379282  
H81      H      0.911850000000     0.990980000000     0.255810000000     0.04196    
H82      H      0.904060000000     0.057880000000     0.168120000000     0.0362304  
H83      H      0.797730000000     0.024760000000     0.194480000000     0.041341   
H84      H      0.987550000000     0.908440000000     0.219400000000     0.0382794  
H85      H      0.860970000000     0.096700000000     0.173340000000     0.0375163  
H86      H      0.873490000000     0.927160000000     0.242140000000     0.0363305  
H87      H      0.981280000000     0.958270000000     0.216870000000     0.0361019  
H88      H      0.905120000000     0.892180000000     0.273990000000     0.0469935  
H89      H      0.764010000000     0.057640000000     0.161100000000     0.0369331  
H90      H      0.880270000000     0.032690000000     0.237280000000     0.0449032  
H91      H      0.871110000000     0.091760000000     0.135980000000     0.0462621  
H92      H      0.898980000000     0.951680000000     0.173330000000     0.04561    
H93      H      0.873860000000     0.041600000000     0.141760000000     0.0393315  
H94      H      0.013800000000     0.923510000000     0.248540000000     0.0445843  
H95      H      0.904200000000     0.942400000000     0.268850000000     0.0393588  
H96      H      0.967330000000     0.960620000000     0.254040000000     0.0389743  
H97      H      0.867510000000     0.993350000000     0.154790000000     0.0415781  
H98      H      0.811390000000     0.022120000000     0.157440000000     0.0413444  
H99      H      0.914700000000     0.887440000000     0.236470000000     0.0388151  
H100     H      0.817020000000     0.084230000000     0.218000000000     0.0379969  
H101     H      0.693120000000     0.184880000000     0.229570000000     0.0422524  
H102     H      0.673920000000     0.271110000000     0.298930000000     0.0362431  
H103     H      0.578170000000     0.219080000000     0.285480000000     0.0415023  
H104     H      0.722450000000     0.225000000000     0.132020000000     0.0374271  
H105     H      0.649360000000     0.259460000000     0.345960000000     0.0383261  
H106     H      0.628530000000     0.188390000000     0.172490000000     0.0363929  
H107     H      0.733630000000     0.230500000000     0.183140000000     0.0359605  
H108     H      0.655450000000     0.161200000000     0.131590000000     0.0471438  
H109     H      0.543100000000     0.243790000000     0.324870000000     0.0379054  
H110     H      0.671540000000     0.198730000000     0.277560000000     0.0451099  
H111     H      0.640100000000     0.295380000000     0.339080000000     0.0457261  
H112     H      0.638190000000     0.256620000000     0.193260000000     0.0453554  
H113     H      0.629380000000     0.286550000000     0.288240000000     0.0388848  
H114     H      0.762010000000     0.203650000000     0.142420000000     0.0445693  
H115     H      0.669910000000     0.168470000000     0.182510000000     0.0400805  
H116     H      0.732530000000     0.193540000000     0.188840000000     0.0392175  
H117     H      0.616150000000     0.270250000000     0.241170000000     0.0414049  
H118     H      0.573180000000     0.255770000000     0.280350000000     0.0415039  
H119     H      0.654370000000     0.197900000000     0.125150000000     0.0382958  
H120     H      0.625750000000     0.207210000000     0.341310000000     0.0381046  
H121     H      0.397750000000     0.888480000000     0.752470000000     0.041493   
H122     H      0.283990000000     0.952320000000     0.723440000000     0.0360231  
H123     H      0.390280000000     0.975030000000     0.687090000000     0.0415328  
H124     H      0.407380000000     0.902250000000     0.860150000000     0.0391768  
H125     H      0.273370000000     0.957260000000     0.672420000000     0.0369478  
H126     H      0.470080000000     0.924420000000     0.785520000000     0.0357337  
H127     H      0.364180000000     0.898660000000     0.820030000000     0.0362831  
H128     H      0.504480000000     0.892160000000     0.818930000000     0.0433682  
H129     H      0.356880000000     0.009120000000     0.654820000000     0.0394337  
H130     H      0.364420000000     0.908620000000     0.711100000000     0.0447431  
H131     H      0.250110000000     0.985220000000     0.690670000000     0.0440397  
H132     H      0.390010000000     0.966620000000     0.796840000000     0.0455552  
H133     H      0.300130000000     0.987640000000     0.726730000000     0.0390129  
H134     H      0.397860000000     0.866270000000     0.853660000000     0.0470312  
H135     H      0.455790000000     0.888710000000     0.781910000000     0.0380684  
H136     H      0.393990000000     0.873650000000     0.802100000000     0.0385756  
H137     H      0.356960000000     0.986790000000     0.755460000000     0.0417116  
H138     H      0.362480000000     0.000780000000     0.705360000000     0.0418281  
H139     H      0.479660000000     0.919810000000     0.836620000000     0.0378873  
H140     H      0.336760000000     0.938730000000     0.647510000000     0.0374915  
H141     H      0.653470000000     0.676780000000     0.737330000000     0.0420179  
H142     H      0.640850000000     0.763340000000     0.800070000000     0.0362728  
H143     H      0.534000000000     0.725380000000     0.784190000000     0.041308   
H144     H      0.698630000000     0.715740000000     0.641530000000     0.0379576  
H145     H      0.611800000000     0.756890000000     0.846540000000     0.0386114  
H146     H      0.601680000000     0.676290000000     0.676050000000     0.0363174  
H147     H      0.701560000000     0.722880000000     0.692930000000     0.0359383  
H148     H      0.636790000000     0.648250000000     0.639140000000     0.0462072  
H149     H      0.503970000000     0.756310000000     0.821670000000     0.0362636  
H150     H      0.627490000000     0.693960000000     0.782880000000     0.0450608  
H151     H      0.611690000000     0.793140000000     0.838210000000     0.0460435  
H152     H      0.609590000000     0.748870000000     0.693920000000     0.045425   
H153     H      0.601670000000     0.784120000000     0.787380000000     0.0387417  
H154     H      0.737250000000     0.695740000000     0.655950000000     0.0445788  
H155     H      0.642980000000     0.658720000000     0.690090000000     0.0392454  
H156     H      0.701780000000     0.686130000000     0.699920000000     0.0391413  
H157     H      0.584040000000     0.766210000000     0.739520000000     0.0413011  
H158     H      0.539550000000     0.761900000000     0.778250000000     0.040575   
H159     H      0.632200000000     0.684290000000     0.630240000000     0.038554   
H160     H      0.573230000000     0.709040000000     0.843660000000     0.0380964  
H161     H      0.659550000000     0.976950000000     0.043460000000     0.0417173  
H162     H      0.547160000000     0.935560000000     0.986960000000     0.0361062  
H163     H      0.653420000000     0.900370000000     0.963530000000     0.0415857  
H164     H      0.664820000000     0.077400000000     0.010330000000     0.0390734  
H165     H      0.539600000000     0.885810000000     0.989750000000     0.037534   
H166     H      0.730010000000     0.003810000000     0.001840000000     0.0358704  
H167     H      0.622410000000     0.039240000000     0.020630000000     0.0362747  
H168     H      0.762560000000     0.041870000000     0.029040000000     0.0442713  
H169     H      0.619060000000     0.863900000000     0.934600000000     0.0391042  
H170     H      0.628470000000     0.933260000000     0.030080000000     0.0448574  
H171     H      0.512550000000     0.898640000000     0.959960000000     0.0445616  
H172     H      0.648470000000     0.005990000000     0.956390000000     0.0456019  
H173     H      0.560110000000     0.934030000000     0.949540000000     0.0389289  
H174     H      0.654170000000     0.077600000000     0.048020000000     0.0465535  
H175     H      0.714930000000     0.006450000000     0.038740000000     0.0385068  
H176     H      0.651910000000     0.027160000000     0.049730000000     0.0390529  
H177     H      0.617130000000     0.962440000000     0.943060000000     0.0416028  
H178     H      0.622550000000     0.913430000000     0.935970000000     0.0414818  
H179     H      0.737660000000     0.053390000000     0.997600000000     0.0380137  
H180     H      0.605790000000     0.866220000000     0.008710000000     0.037644   
H181     H      0.164950000000     0.700650000000     0.166590000000     0.0415804  
H182     H      0.051350000000     0.743670000000     0.220040000000     0.0359965  
H183     H      0.157720000000     0.770900000000     0.252700000000     0.0416879  
H184     H      0.159040000000     0.597990000000     0.192180000000     0.0387629  
H185     H      0.048750000000     0.793710000000     0.220810000000     0.0374348  
H186     H      0.229020000000     0.668070000000     0.208960000000     0.0359034  
H187     H      0.120820000000     0.638570000000     0.182700000000     0.0360942  
H188     H      0.260940000000     0.630510000000     0.180530000000     0.0441594  
H189     H      0.123800000000     0.807080000000     0.282370000000     0.039347   
H190     H      0.136460000000     0.744680000000     0.181890000000     0.0448528  
H191     H      0.017560000000     0.780420000000     0.247980000000     0.044224   
H192     H      0.142980000000     0.666040000000     0.250230000000     0.0456221  
H193     H      0.060230000000     0.741840000000     0.258110000000     0.0392763  
H194     H      0.152080000000     0.600740000000     0.154120000000     0.0461213  
H195     H      0.216940000000     0.668350000000     0.171340000000     0.0383532  
H196     H      0.153740000000     0.651160000000     0.156030000000     0.0387724  
H197     H      0.114050000000     0.709910000000     0.265400000000     0.0418944  
H198     H      0.122460000000     0.757760000000     0.277030000000     0.0418329  
H199     H      0.232910000000     0.618160000000     0.210070000000     0.0375645  
H200     H      0.118680000000     0.811210000000     0.207740000000     0.0376547  
H201     H      0.362860000000     0.679840000000     0.052350000000     0.0417359  
H202     H      0.475340000000     0.716320000000     0.990550000000     0.0362192  
H203     H      0.367560000000     0.748450000000     0.966480000000     0.0416678  
H204     H      0.354080000000     0.577250000000     0.029670000000     0.0376127  
H205     H      0.482590000000     0.766060000000     0.989630000000     0.0376893  
H206     H      0.291800000000     0.649650000000     0.012690000000     0.0357733  
H207     H      0.398750000000     0.615200000000     0.035460000000     0.0361651  
H208     H      0.258360000000     0.615250000000     0.044000000000     0.0438889  
H209     H      0.400120000000     0.783410000000     0.934590000000     0.0398029  
H210     H      0.394250000000     0.722000000000     0.034900000000     0.0449758  
H211     H      0.508070000000     0.751680000000     0.959810000000     0.0445975  
H212     H      0.373410000000     0.643240000000     0.968340000000     0.0453978  
H213     H      0.461040000000     0.715200000000     0.953400000000     0.0393397  
H214     H      0.366550000000     0.580330000000     0.066930000000     0.0467195  
H215     H      0.306630000000     0.651290000000     0.049710000000     0.0389478  
H216     H      0.370140000000     0.630820000000     0.063240000000     0.0394725  
H217     H      0.405010000000     0.685360000000     0.950940000000     0.0419385  
H218     H      0.398260000000     0.734040000000     0.939540000000     0.0419931  
H219     H      0.284250000000     0.599750000000     0.014890000000     0.0364393  
H220     H      0.416400000000     0.786740000000     0.008380000000     0.0375812  
H221     H      0.380080000000     0.430430000000     0.204430000000     0.0417314  
H222     H      0.491250000000     0.414210000000     0.277530000000     0.0356443  
H223     H      0.385410000000     0.378580000000     0.301080000000     0.0415965  
H224     H      0.358350000000     0.534360000000     0.206600000000     0.038668   
H225     H      0.505170000000     0.366310000000     0.287470000000     0.0366928  
H226     H      0.302610000000     0.461410000000     0.235570000000     0.0359634  
H227     H      0.406110000000     0.498410000000     0.208690000000     0.0360519  
H228     H      0.267050000000     0.487700000000     0.197580000000     0.0440637  
H229     H      0.418430000000     0.351450000000     0.340140000000     0.0394978  
H230     H      0.415260000000     0.394600000000     0.230780000000     0.0448199  
H231     H      0.524240000000     0.386790000000     0.316150000000     0.0428631  
H232     H      0.378860000000     0.481700000000     0.280160000000     0.045413   
H233     H      0.472510000000     0.419960000000     0.313050000000     0.0380849  
H234     H      0.371240000000     0.525010000000     0.170610000000     0.0465509  
H235     H      0.319750000000     0.455050000000     0.199690000000     0.0387348  
H236     H      0.380220000000     0.476710000000     0.183960000000     0.0389374  
H237     H      0.413990000000     0.445860000000     0.306510000000     0.0413948  
H238     H      0.411380000000     0.399050000000     0.326600000000     0.0413212  
H239     H      0.287880000000     0.509160000000     0.224830000000     0.0376932  
H240     H      0.444180000000     0.337380000000     0.269250000000     0.0370399  
H241     H      0.160570000000     0.193010000000     0.681680000000     0.0416636  
H242     H      0.047100000000     0.242970000000     0.733120000000     0.0358487  
H243     H      0.156950000000     0.266250000000     0.762250000000     0.0415072  
H244     H      0.141410000000     0.091860000000     0.704810000000     0.0379371  
H245     H      0.048880000000     0.292880000000     0.730620000000     0.0369561  
H246     H      0.215100000000     0.155260000000     0.731080000000     0.0358229  
H247     H      0.108500000000     0.134810000000     0.693830000000     0.036187   
H248     H      0.246340000000     0.116380000000     0.704670000000     0.0444935  
H249     H      0.127810000000     0.306070000000     0.789710000000     0.0386099  
H250     H      0.136110000000     0.238890000000     0.694820000000     0.0448675  
H251     H      0.018050000000     0.282990000000     0.759480000000     0.0440211  
H252     H      0.128060000000     0.161630000000     0.764750000000     0.0452327  
H253     H      0.057120000000     0.243010000000     0.771080000000     0.0383106  
H254     H      0.138600000000     0.095820000000     0.666520000000     0.0467447  
H255     H      0.210000000000     0.158210000000     0.692670000000     0.0389413  
H256     H      0.146370000000     0.146040000000     0.670430000000     0.0391454  
H257     H      0.104210000000     0.207660000000     0.778070000000     0.0413391  
H258     H      0.121140000000     0.256610000000     0.787840000000     0.0413638  
H259     H      0.209940000000     0.105080000000     0.729110000000     0.0374142  
H260     H      0.120040000000     0.305990000000     0.715040000000     0.037424   
H261     H      0.911120000000     0.237110000000     0.903030000000     0.0415443  
H262     H      0.905460000000     0.180860000000     0.998580000000     0.036181   
H263     H      0.800460000000     0.216790000000     0.973340000000     0.0414792  
H264     H      0.001480000000     0.315920000000     0.925780000000     0.0366535  
H265     H      0.859600000000     0.143650000000     0.999350000000     0.0378853  
H266     H      0.883180000000     0.305030000000     0.912080000000     0.0361765  
H267     H      0.988280000000     0.267420000000     0.934140000000     0.0356255  
H268     H      0.915920000000     0.334020000000     0.874880000000     0.0463508  
H269     H      0.766670000000     0.188670000000     0.011240000000     0.0370742  
H270     H      0.876810000000     0.199760000000     0.927690000000     0.0448524  
H271     H      0.871970000000     0.152110000000     0.035620000000     0.0462457  
H272     H      0.911630000000     0.284940000000     0.981150000000     0.0453305  
H273     H      0.878620000000     0.200970000000     0.024160000000     0.0390714  
H274     H      0.021910000000     0.296060000000     0.897080000000     0.043443   
H275     H      0.908070000000     0.284880000000     0.885420000000     0.0390048  
H276     H      0.969770000000     0.262820000000     0.898360000000     0.0383571  
H277     H      0.877100000000     0.247680000000     0.005750000000     0.0415672  
H278     H      0.817470000000     0.221770000000     0.009300000000     0.0413998  
H279     H      0.930770000000     0.341230000000     0.910990000000     0.0382462  
H280     H      0.812090000000     0.153420000000     0.955530000000     0.03782    
H281     H      0.907520000000     0.488360000000     0.756530000000     0.0422376  
H282     H      0.894490000000     0.557210000000     0.671860000000     0.0363447  
H283     H      0.791070000000     0.516860000000     0.693460000000     0.0413284  
H284     H      0.995290000000     0.413060000000     0.719090000000     0.037661   
H285     H      0.847370000000     0.593260000000     0.677880000000     0.0376768  
H286     H      0.878860000000     0.422310000000     0.739470000000     0.0362836  
H287     H      0.982340000000     0.462340000000     0.717550000000     0.036257   
H288     H      0.914130000000     0.388910000000     0.770770000000     0.0471557  
H289     H      0.755400000000     0.549420000000     0.660670000000     0.0364923  
H290     H      0.870970000000     0.528270000000     0.739030000000     0.0450278  
H291     H      0.859380000000     0.590640000000     0.640590000000     0.0469774  
H292     H      0.902290000000     0.451440000000     0.672400000000     0.0454939  
H293     H      0.867200000000     0.540600000000     0.643960000000     0.0395173  
H294     H      0.018730000000     0.429400000000     0.748880000000     0.0449161  
H295     H      0.905950000000     0.439050000000     0.767420000000     0.0398566  
H296     H      0.966950000000     0.462700000000     0.754480000000     0.0396713  
H297     H      0.865810000000     0.491350000000     0.654900000000     0.0416218  
H298     H      0.806730000000     0.516960000000     0.656790000000     0.0412452  
H299     H      0.926570000000     0.386550000000     0.733470000000     0.0381573  
H300     H      0.802190000000     0.576460000000     0.720440000000     0.0379569  
H301     H      0.177450000000     0.498620000000     0.981000000000     0.0417517  
H302     H      0.166590000000     0.421930000000     0.901900000000     0.0363197  
H303     H      0.061930000000     0.459390000000     0.925820000000     0.041245   
H304     H      0.222660000000     0.449190000000     0.070550000000     0.0372915  
H305     H      0.134410000000     0.435720000000     0.858080000000     0.0385109  
H306     H      0.121670000000     0.484400000000     0.040640000000     0.0362252  
H307     H      0.228750000000     0.449690000000     0.018550000000     0.0358768  
H308     H      0.150790000000     0.508490000000     0.082800000000     0.046886   
H309     H      0.029030000000     0.435030000000     0.885140000000     0.0374935  
H310     H      0.152920000000     0.488730000000     0.932750000000     0.0447961  
H311     H      0.135250000000     0.398650000000     0.860220000000     0.0469819  
H312     H      0.137620000000     0.418970000000     0.010080000000     0.0452469  
H313     H      0.127500000000     0.399890000000     0.912340000000     0.0391611  
H314     H      0.259290000000     0.473280000000     0.060450000000     0.0445786  
H315     H      0.159600000000     0.507660000000     0.030580000000     0.0394875  
H316     H      0.223740000000     0.486870000000     0.017370000000     0.0388707  
H317     H      0.113030000000     0.409110000000     0.961880000000     0.0414743  
H318     H      0.065550000000     0.422290000000     0.926620000000     0.0412889  
H319     H      0.154260000000     0.471380000000     0.084660000000     0.0378358  
H320     H      0.100370000000     0.483140000000     0.871140000000     0.038154   
In1      In     0.023770000000     0.360540000000     0.820830000000     2.41328    
In2      In     0.260050000000     0.551540000000     0.120670000000     2.41283    
In3      In     0.508180000000     0.825500000000     0.893420000000     2.41593    
In4      In     0.762660000000     0.122730000000     0.085970000000     2.41862    
In5      In     0.527110000000     0.317920000000     0.388750000000     2.40931    
In6      In     0.749910000000     0.620960000000     0.591680000000     2.40765    
In7      In     0.013060000000     0.851390000000     0.317120000000     2.41425    
In8      In     0.248850000000     0.058380000000     0.623630000000     2.41024    
N1       N      0.060790000000     0.906170000000     0.372870000000    -0.173342   
N2       N      0.094510000000     0.939610000000     0.415550000000    -0.111393   
N3       N      0.162880000000     0.980660000000     0.518110000000    -0.113174   
N4       N      0.197940000000     0.012490000000     0.561300000000    -0.168159   
N5       N      0.958910000000     0.795360000000     0.367860000000    -0.173163   
N6       N      0.920640000000     0.759220000000     0.405630000000    -0.111362   
N7       N      0.843970000000     0.709790000000     0.500540000000    -0.113208   
N8       N      0.805270000000     0.674140000000     0.538440000000    -0.168016   
N9       N      0.470040000000     0.261750000000     0.437310000000    -0.172384   
N10      N      0.429860000000     0.222260000000     0.469900000000    -0.111305   
N11      N      0.344080000000     0.162870000000     0.553560000000    -0.113381   
N12      N      0.304060000000     0.122000000000     0.584410000000    -0.168666   
N13      N      0.705740000000     0.564810000000     0.535630000000    -0.173559   
N14      N      0.672060000000     0.519960000000     0.506170000000    -0.111474   
N15      N      0.600310000000     0.417520000000     0.477760000000    -0.113507   
N16      N      0.568040000000     0.372650000000     0.447650000000    -0.16908    
N17      N      0.814890000000     0.079880000000     0.149910000000    -0.173588   
N18      N      0.852740000000     0.040930000000     0.184860000000    -0.111544   
N19      N      0.925660000000     0.943150000000     0.225870000000    -0.113348   
N20      N      0.961680000000     0.902720000000     0.259860000000    -0.168382   
N21      N      0.591430000000     0.268200000000     0.337620000000    -0.173404   
N22      N      0.629180000000     0.242290000000     0.291430000000    -0.111514   
N23      N      0.678740000000     0.212230000000     0.179160000000    -0.113581   
N24      N      0.709580000000     0.182280000000     0.132840000000    -0.168405   
N25      N      0.300810000000     0.995890000000     0.667060000000    -0.173265   
N26      N      0.338640000000     0.960070000000     0.705440000000    -0.111534   
N27      N      0.415400000000     0.915150000000     0.802670000000    -0.113361   
N28      N      0.453720000000     0.880690000000     0.841900000000    -0.16839    
N29      N      0.557280000000     0.772640000000     0.836450000000    -0.173324   
N30      N      0.589860000000     0.740860000000     0.791980000000    -0.111399   
N31      N      0.648790000000     0.702610000000     0.685060000000    -0.113388   
N32      N      0.687890000000     0.672710000000     0.642310000000    -0.168687   
N33      N      0.563620000000     0.876010000000     0.949400000000    -0.173335   
N34      N      0.602080000000     0.918710000000     0.978810000000    -0.111562   
N35      N      0.674560000000     0.020660000000     0.007640000000    -0.113352   
N36      N      0.710750000000     0.064670000000     0.036390000000    -0.168392   
N37      N      0.069330000000     0.799520000000     0.263020000000    -0.173193   
N38      N      0.106650000000     0.756820000000     0.232760000000    -0.11151    
N39      N      0.173030000000     0.653940000000     0.199480000000    -0.113343   
N40      N      0.208300000000     0.610250000000     0.169560000000    -0.168313   
N41      N      0.456250000000     0.773400000000     0.949560000000    -0.172766   
N42      N      0.419860000000     0.732120000000     0.982340000000    -0.111483   
N43      N      0.347080000000     0.633340000000     0.020790000000    -0.113581   
N44      N      0.310080000000     0.593810000000     0.055330000000    -0.169097   
N45      N      0.474610000000     0.362620000000     0.326340000000    -0.173076   
N46      N      0.437250000000     0.395710000000     0.285270000000    -0.111446   
N47      N      0.355860000000     0.480250000000     0.225900000000    -0.113368   
N48      N      0.315900000000     0.511620000000     0.184830000000    -0.168311   
N49      N      0.072160000000     0.300430000000     0.771700000000    -0.173215   
N50      N      0.103980000000     0.253950000000     0.743980000000    -0.111511   
N51      N      0.159530000000     0.146430000000     0.715330000000    -0.113637   
N52      N      0.193880000000     0.102250000000     0.685540000000    -0.168405   
N53      N      0.815940000000     0.164490000000     0.021870000000    -0.17303    
N54      N      0.854390000000     0.198410000000     0.982090000000    -0.111443   
N55      N      0.934350000000     0.286200000000     0.926830000000    -0.113449   
N56      N      0.971990000000     0.319900000000     0.886520000000    -0.169228   
N57      N      0.803990000000     0.575230000000     0.652570000000    -0.173107   
N58      N      0.844430000000     0.536720000000     0.686370000000    -0.111469   
N59      N      0.928840000000     0.442980000000     0.725040000000    -0.113442   
N60      N      0.969340000000     0.404820000000     0.759050000000    -0.168072   
N61      N      0.080810000000     0.418070000000     0.867800000000    -0.172718   
N62      N      0.116730000000     0.443480000000     0.915130000000    -0.111701   
N63      N      0.173020000000     0.464460000000     0.027880000000    -0.113728   
N64      N      0.206490000000     0.491070000000     0.075340000000    -0.168547   
O1       O      0.971650000000     0.349550000000     0.847780000000    -0.496324   
O2       O      0.024010000000     0.330170000000     0.858380000000    -0.513753   
O3       O      0.022960000000     0.392370000000     0.784550000000    -0.508959   
O4       O      0.025940000000     0.398530000000     0.849780000000    -0.510431   
O5       O      0.020470000000     0.323890000000     0.790050000000    -0.51192    
O6       O      0.078540000000     0.380520000000     0.837210000000    -0.49372    
O7       O      0.970700000000     0.373130000000     0.796000000000    -0.495648   
O8       O      0.075350000000     0.337230000000     0.803200000000    -0.493231   
O9       O      0.207160000000     0.573110000000     0.138430000000    -0.493526   
O10      O      0.261240000000     0.589080000000     0.150340000000    -0.511167   
O11      O      0.261900000000     0.521890000000     0.158810000000    -0.510801   
O12      O      0.260180000000     0.512560000000     0.092980000000    -0.511204   
O13      O      0.258270000000     0.581600000000     0.082870000000    -0.51327    
O14      O      0.206610000000     0.529850000000     0.104190000000    -0.495444   
O15      O      0.313870000000     0.540290000000     0.145340000000    -0.495364   
O16      O      0.311640000000     0.563900000000     0.093830000000    -0.49671    
O17      O      0.562240000000     0.841620000000     0.915040000000    -0.49433    
O18      O      0.509520000000     0.859570000000     0.927250000000    -0.512955   
O19      O      0.559440000000     0.808600000000     0.868980000000    -0.497022   
O20      O      0.509420000000     0.791640000000     0.927560000000    -0.509897   
O21      O      0.454540000000     0.845770000000     0.875590000000    -0.494335   
O22      O      0.455480000000     0.807110000000     0.914560000000    -0.493525   
O23      O      0.505520000000     0.790370000000     0.860690000000    -0.511481   
O24      O      0.507750000000     0.859240000000     0.859060000000    -0.511862   
O25      O      0.762670000000     0.162710000000     0.112070000000    -0.511312   
O26      O      0.709820000000     0.142110000000     0.106120000000    -0.496425   
O27      O      0.709860000000     0.102840000000     0.066130000000    -0.495017   
O28      O      0.762790000000     0.152580000000     0.048090000000    -0.510175   
O29      O      0.815280000000     0.109920000000     0.111450000000    -0.49762    
O30      O      0.815690000000     0.135130000000     0.060890000000    -0.495905   
O31      O      0.763500000000     0.084310000000     0.057550000000    -0.512242   
O32      O      0.762060000000     0.092920000000     0.123920000000    -0.513079   
O33      O      0.520310000000     0.354740000000     0.419190000000    -0.513442   
O34      O      0.574530000000     0.335500000000     0.416950000000    -0.499679   
O35      O      0.472660000000     0.297490000000     0.404620000000    -0.491561   
O36      O      0.474470000000     0.332180000000     0.364390000000    -0.491891   
O37      O      0.583370000000     0.306120000000     0.367180000000    -0.494997   
O38      O      0.527630000000     0.349490000000     0.352180000000    -0.508863   
O39      O      0.524860000000     0.284210000000     0.423130000000    -0.504831   
O40      O      0.535390000000     0.280360000000     0.359900000000    -0.510357   
O41      O      0.700820000000     0.602570000000     0.565740000000    -0.497459   
O42      O      0.755120000000     0.583700000000     0.561700000000    -0.510775   
O43      O      0.743850000000     0.658200000000     0.621420000000    -0.511355   
O44      O      0.750530000000     0.588360000000     0.627250000000    -0.508317   
O45      O      0.803840000000     0.639330000000     0.572230000000    -0.492725   
O46      O      0.802790000000     0.607880000000     0.616520000000    -0.494197   
O47      O      0.694140000000     0.634690000000     0.612690000000    -0.494828   
O48      O      0.750780000000     0.654270000000     0.556820000000    -0.507698   
O49      O      0.009310000000     0.883900000000     0.352620000000    -0.511487   
O50      O      0.064290000000     0.872610000000     0.337740000000    -0.49615    
O51      O      0.960500000000     0.869680000000     0.295530000000    -0.494166   
O52      O      0.067520000000     0.832230000000     0.299080000000    -0.492983   
O53      O      0.959550000000     0.831200000000     0.335190000000    -0.495445   
O54      O      0.014750000000     0.818860000000     0.281710000000    -0.51218    
O55      O      0.014550000000     0.884800000000     0.282480000000    -0.510523   
O56      O      0.012920000000     0.816890000000     0.350680000000    -0.510542   
O57      O      0.302120000000     0.083490000000     0.613540000000    -0.496326   
O58      O      0.250580000000     0.095650000000     0.593350000000    -0.511433   
O59      O      0.248150000000     0.021770000000     0.654650000000    -0.511025   
O60      O      0.247920000000     0.084720000000     0.664230000000    -0.510638   
O61      O      0.196330000000     0.041650000000     0.600490000000    -0.494493   
O62      O      0.194860000000     0.075160000000     0.644770000000    -0.493808   
O63      O      0.301110000000     0.033090000000     0.636070000000    -0.494117   
O64      O      0.250600000000     0.031090000000     0.583650000000    -0.509571   
S1       S      0.027210000000     0.955790000000     0.371400000000    -0.0414114  
S2       S      0.990020000000     0.745150000000     0.362480000000    -0.0411672  
S3       S      0.506410000000     0.213390000000     0.432550000000    -0.0334337  
S4       S      0.745480000000     0.555980000000     0.487600000000    -0.0428159  
S5       S      0.784150000000     0.082130000000     0.202330000000    -0.0442692  
S6       S      0.588120000000     0.213410000000     0.345600000000    -0.0393148  
S7       S      0.347940000000     0.963830000000     0.636670000000    -0.0394788  
S8       S      0.537180000000     0.719850000000     0.844520000000    -0.0409813  
S9       S      0.615170000000     0.852610000000     0.983900000000    -0.0391399  
S10      S      0.127220000000     0.822090000000     0.234120000000    -0.0385658  
S11      S      0.404490000000     0.798010000000     0.982930000000    -0.0383396  
S12      S      0.429220000000     0.329900000000     0.295270000000    -0.0383127  
S13      S      0.131340000000     0.317670000000     0.740450000000    -0.0384708  
S14      S      0.780520000000     0.160070000000     0.971350000000    -0.0409585  
S15      S      0.770350000000     0.572630000000     0.703930000000    -0.0429851  
S16      S      0.064920000000     0.472250000000     0.866360000000    -0.0425589  


