data_structure

_audit_creation_method RASPA-1.0
_audit_creation_date 2023-5-22
_audit_author_name 'Poobodin Mano'

_cell_length_a    37.2774
_cell_length_b    55.235
_cell_length_c    36.3266
_cell_angle_alpha 90
_cell_angle_beta  90
_cell_angle_gamma 90
_cell_volume      74797.1

_symmetry_cell_setting          triclinic
_symmetry_space_group_name_Hall 'P 1'
_symmetry_space_group_name_H-M  'P 1'
_symmetry_Int_Tables_number     1

_symmetry_equiv_pos_as_xyz 'x,y,z'

loop_
_atom_site_label
_atom_site_type_symbol
_atom_site_fract_x
_atom_site_fract_y
_atom_site_fract_z
_atom_site_charge
C1       C      0.019540000000     0.313180000000     0.999080000000     0.40497    
C2       C      0.925800000000     0.310260000000     0.931300000000     0.402616   
C3       C      0.021670000000     0.252230000000     0.931420000000     0.404002   
C4       C      0.929800000000     0.250930000000     0.000330000000     0.405513   
C5       C      0.179170000000     0.499000000000     0.193880000000     0.40763    
C6       C      0.195030000000     0.554530000000     0.280460000000     0.407922   
C7       C      0.276290000000     0.497100000000     0.260980000000     0.408994   
C8       C      0.260370000000     0.557280000000     0.181340000000     0.408469   
C9       C      0.515430000000     0.750480000000     0.964790000000     0.406627   
C10      C      0.451520000000     0.753360000000     0.061500000000     0.407778   
C11      C      0.533090000000     0.812970000000     0.042710000000     0.410341   
C12      C      0.438340000000     0.811420000000     0.976610000000     0.404056   
C13      C      0.796880000000     0.058680000000     0.195970000000     0.405816   
C14      C      0.789710000000     0.001130000000     0.268170000000     0.403999   
C15      C      0.712740000000     0.070310000000     0.272820000000     0.403134   
C16      C      0.691690000000     0.009320000000     0.207680000000     0.404892   
C17      C      0.407580000000     0.301100000000     0.451890000000     0.405243   
C18      C      0.488830000000     0.233860000000     0.453010000000     0.404143   
C19      C      0.501900000000     0.296670000000     0.517340000000     0.404533   
C20      C      0.400890000000     0.243060000000     0.524720000000     0.405256   
C21      C      0.720620000000     0.485990000000     0.755960000000     0.404148   
C22      C      0.657770000000     0.556270000000     0.768210000000     0.403749   
C23      C      0.730470000000     0.554270000000     0.685390000000     0.404237   
C24      C      0.640240000000     0.498970000000     0.679690000000     0.405416   
C25      C      0.919760000000     0.799970000000     0.448450000000     0.40996    
C26      C      0.931780000000     0.738730000000     0.527430000000     0.407471   
C27      C      0.999640000000     0.740540000000     0.430960000000     0.407778   
C28      C      0.014090000000     0.796710000000     0.517620000000     0.406578   
C29      C      0.164160000000     0.048010000000     0.773320000000     0.404809   
C30      C      0.259900000000     0.990060000000     0.780470000000     0.403836   
C31      C      0.169470000000     0.985990000000     0.708720000000     0.404202   
C32      C      0.259560000000     0.048040000000     0.708500000000     0.404952   
C33      C      0.049230000000     0.830960000000     0.595460000000    -0.0308724  
C34      C      0.136050000000     0.947640000000     0.633750000000    -0.0307125  
C35      C      0.125370000000     0.952760000000     0.712900000000    -0.00513229 
C36      C      0.139530000000     0.972560000000     0.651730000000    -0.0053696  
C37      C      0.066610000000     0.906850000000     0.623190000000    -0.0537564  
C38      C      0.118820000000     0.871670000000     0.609190000000    -0.053709   
C39      C      0.101790000000     0.910530000000     0.635480000000     0.061671   
C40      C      0.122360000000     0.928590000000     0.692530000000    -0.0307859  
C41      C      0.083680000000     0.868070000000     0.596680000000     0.0616036  
C42      C      0.064390000000     0.851620000000     0.538190000000    -0.030999   
C43      C      0.057500000000     0.885820000000     0.603960000000    -0.0560337  
C44      C      0.061300000000     0.828070000000     0.516280000000    -0.00467874 
C45      C      0.045570000000     0.806670000000     0.575540000000    -0.00525823 
C46      C      0.127920000000     0.892700000000     0.628450000000    -0.0560864  
C47      C      0.913360000000     0.683450000000     0.581630000000    -0.0310832  
C48      C      0.812520000000     0.588550000000     0.654480000000    -0.0309876  
C49      C      0.734290000000     0.592720000000     0.652570000000    -0.00371693 
C50      C      0.790500000000     0.571590000000     0.678950000000    -0.00379828 
C51      C      0.828900000000     0.629870000000     0.599250000000    -0.0559539  
C52      C      0.844910000000     0.669460000000     0.644410000000    -0.053955   
C53      C      0.815870000000     0.630560000000     0.635620000000     0.0617854  
C54      C      0.760040000000     0.608290000000     0.630000000000    -0.0309998  
C55      C      0.857480000000     0.669090000000     0.608110000000     0.061693   
C56      C      0.857080000000     0.703360000000     0.566720000000    -0.0308658  
C57      C      0.849360000000     0.649090000000     0.585500000000    -0.0558344  
C58      C      0.875890000000     0.727440000000     0.559150000000    -0.00482981 
C59      C      0.934850000000     0.706590000000     0.574400000000    -0.00443026 
C60      C      0.824270000000     0.650380000000     0.658030000000    -0.0538164  
C61      C      0.370960000000     0.206500000000     0.601200000000    -0.0306199  
C62      C      0.290450000000     0.087040000000     0.634420000000    -0.0307805  
C63      C      0.305750000000     0.080040000000     0.712410000000    -0.00530819 
C64      C      0.289030000000     0.061640000000     0.651180000000    -0.00541064 
C65      C      0.356480000000     0.129670000000     0.621520000000    -0.0537149  
C66      C      0.302490000000     0.164660000000     0.616210000000    -0.05377    
C67      C      0.322650000000     0.124970000000     0.636660000000     0.0617174  
C68      C      0.306730000000     0.104820000000     0.693630000000    -0.0307725  
C69      C      0.336380000000     0.169410000000     0.601240000000     0.0617301  
C70      C      0.348900000000     0.189380000000     0.543400000000    -0.0307519  
C71      C      0.363380000000     0.151650000000     0.603830000000    -0.0560556  
C72      C      0.350180000000     0.214190000000     0.524730000000    -0.00521355 
C73      C      0.373090000000     0.231810000000     0.584170000000    -0.00562165 
C74      C      0.295520000000     0.142620000000     0.633700000000    -0.0560179  
C75      C      0.533010000000     0.339850000000     0.584270000000    -0.0306119  
C76      C      0.618730000000     0.458800000000     0.604900000000    -0.0308522  
C77      C      0.586460000000     0.472930000000     0.674760000000    -0.0054183  
C78      C      0.620630000000     0.485120000000     0.618030000000    -0.00551342 
C79      C      0.548870000000     0.417990000000     0.586160000000    -0.0537294  
C80      C      0.599920000000     0.381350000000     0.595060000000    -0.0537754  
C81      C      0.580940000000     0.423040000000     0.604720000000     0.0615692  
C82      C      0.585760000000     0.446920000000     0.660260000000    -0.0307415  
C83      C      0.567880000000     0.376310000000     0.576440000000     0.0615829  
C84      C      0.555210000000     0.351030000000     0.523250000000    -0.0306883  
C85      C      0.542200000000     0.394820000000     0.572260000000    -0.0560121  
C86      C      0.553360000000     0.324670000000     0.510310000000    -0.00563174 
C87      C      0.530850000000     0.313160000000     0.573230000000    -0.00557263 
C88      C      0.606440000000     0.404450000000     0.609270000000    -0.0559651  
C89      C      0.886390000000     0.837750000000     0.374170000000    -0.0309087  
C90      C      0.820870000000     0.961350000000     0.341770000000    -0.0306424  
C91      C      0.829290000000     0.965480000000     0.262210000000    -0.00521193 
C92      C      0.821180000000     0.986320000000     0.323590000000    -0.00550605 
C93      C      0.818710000000     0.906060000000     0.346830000000    -0.0559988  
C94      C      0.888160000000     0.892950000000     0.368120000000    -0.0561127  
C95      C      0.847710000000     0.921560000000     0.338890000000     0.061631   
C96      C      0.828720000000     0.941230000000     0.282560000000    -0.0308249  
C97      C      0.859160000000     0.877460000000     0.376090000000     0.0617153  
C98      C      0.877600000000     0.858330000000     0.432980000000    -0.0310714  
C99      C      0.824520000000     0.884210000000     0.365280000000    -0.0538236  
C100     C      0.877390000000     0.834220000000     0.453720000000    -0.00470154 
C101     C      0.886490000000     0.812960000000     0.392990000000    -0.00522718 
C102     C      0.882350000000     0.914790000000     0.349660000000    -0.0537174  
C103     C      0.554820000000     0.184440000000     0.439160000000    -0.0310194  
C104     C      0.649510000000     0.120510000000     0.290430000000    -0.031014   
C105     C      0.699050000000     0.090080000000     0.331950000000    -0.00539553 
C106     C      0.682500000000     0.109940000000     0.271220000000    -0.00499013 
C107     C      0.594140000000     0.129000000000     0.351230000000    -0.0560507  
C108     C      0.611030000000     0.174700000000     0.379570000000    -0.0560876  
C109     C      0.629330000000     0.138010000000     0.347810000000     0.0616116  
C110     C      0.665330000000     0.101500000000     0.348520000000    -0.0307069  
C111     C      0.575830000000     0.165720000000     0.382880000000     0.0616227  
C112     C      0.539650000000     0.202040000000     0.379950000000    -0.0307371  
C113     C      0.567700000000     0.142800000000     0.368640000000    -0.0536761  
C114     C      0.505460000000     0.213550000000     0.395240000000    -0.00510297 
C115     C      0.521390000000     0.195180000000     0.457360000000    -0.00484276 
C116     C      0.637480000000     0.160890000000     0.362170000000    -0.053676   
C117     C      0.400340000000     0.846520000000     0.900070000000    -0.0309004  
C118     C      0.296620000000     0.956230000000     0.858920000000    -0.0306938  
C119     C      0.309000000000     0.960110000000     0.779850000000    -0.00510009 
C120     C      0.289680000000     0.980270000000     0.839260000000    -0.00540865 
C121     C      0.372160000000     0.920770000000     0.873110000000    -0.0537371  
C122     C      0.325480000000     0.882310000000     0.887690000000    -0.0537337  
C123     C      0.336720000000     0.921830000000     0.860420000000     0.0616382  
C124     C      0.315190000000     0.936850000000     0.801830000000    -0.0308194  
C125     C      0.360930000000     0.881240000000     0.900330000000     0.0616504  
C126     C      0.383960000000     0.865630000000     0.958060000000    -0.0310264  
C127     C      0.384300000000     0.900670000000     0.892890000000    -0.05613    
C128     C      0.390350000000     0.842140000000     0.979440000000    -0.00494147 
C129     C      0.407270000000     0.822250000000     0.919020000000    -0.00516969 
C130     C      0.313360000000     0.902400000000     0.867870000000    -0.0560668  
C131     C      0.523410000000     0.698100000000     0.901420000000    -0.0309598  
C132     C      0.591940000000     0.600320000000     0.809480000000    -0.0310007  
C133     C      0.668740000000     0.589490000000     0.811120000000    -0.00372158 
C134     C      0.606920000000     0.582950000000     0.780540000000    -0.00376018 
C135     C      0.590850000000     0.636420000000     0.874650000000    -0.055946   
C136     C      0.590330000000     0.681460000000     0.839390000000    -0.0538878  
C137     C      0.604980000000     0.638640000000     0.838850000000     0.061744   
C138     C      0.649630000000     0.606570000000     0.837830000000    -0.0310087  
C139     C      0.576260000000     0.679400000000     0.874960000000     0.0616468  
C140     C      0.582510000000     0.708570000000     0.924400000000    -0.0308948  
C141     C      0.576790000000     0.656700000000     0.892680000000    -0.0558128  
C142     C      0.570060000000     0.733750000000     0.936490000000    -0.00470513 
C143     C      0.507960000000     0.722690000000     0.912450000000    -0.00446187 
C144     C      0.604590000000     0.661270000000     0.821500000000    -0.0538532  
C145     C      0.638800000000     0.955180000000     0.197670000000    -0.0307673  
C146     C      0.580980000000     0.870090000000     0.053660000000    -0.0310099  
C147     C      0.565620000000     0.827260000000     0.097840000000    -0.00522293 
C148     C      0.578490000000     0.845210000000     0.035270000000    -0.0048447  
C149     C      0.574380000000     0.908000000000     0.114900000000    -0.0560306  
C150     C      0.645080000000     0.917570000000     0.136230000000    -0.056003   
C151     C      0.601220000000     0.890490000000     0.108830000000     0.0615701  
C152     C      0.568520000000     0.852750000000     0.114050000000    -0.0307827  
C153     C      0.618230000000     0.935060000000     0.142400000000     0.0615409  
C154     C      0.650640000000     0.972900000000     0.137160000000    -0.0306267  
C155     C      0.582940000000     0.930070000000     0.131570000000    -0.053819   
C156     C      0.654300000000     0.998190000000     0.153980000000    -0.00553913 
C157     C      0.642190000000     0.979970000000     0.216210000000    -0.00547317 
C158     C      0.636510000000     0.895500000000     0.119610000000    -0.0536836  
C159     C      0.119980000000     0.587230000000     0.319480000000    -0.0308778  
C160     C      0.074930000000     0.707180000000     0.393170000000    -0.0308164  
C161     C      0.997030000000     0.707000000000     0.385990000000    -0.00498295 
C162     C      0.053970000000     0.730960000000     0.394820000000    -0.00528599 
C163     C      0.087260000000     0.662620000000     0.327420000000    -0.0537904  
C164     C      0.107470000000     0.631850000000     0.384950000000    -0.0538147  
C165     C      0.076710000000     0.668050000000     0.363480000000     0.0616998  
C166     C      0.019790000000     0.683970000000     0.384590000000    -0.0308644  
C167     C      0.118060000000     0.626450000000     0.348900000000     0.0616808  
C168     C      0.174990000000     0.610700000000     0.327520000000    -0.0310114  
C169     C      0.107750000000     0.642010000000     0.320060000000    -0.0560716  
C170     C      0.197930000000     0.587760000000     0.325980000000    -0.00469589 
C171     C      0.141190000000     0.563550000000     0.317740000000    -0.00526891 
C172     C      0.086950000000     0.652460000000     0.392310000000    -0.0561146  
C173     C      0.432030000000     0.695610000000     0.102830000000    -0.0309127  
C174     C      0.278780000000     0.616070000000     0.142150000000    -0.0310793  
C175     C      0.314670000000     0.569280000000     0.146740000000    -0.00526185 
C176     C      0.257060000000     0.592620000000     0.139650000000    -0.00463597 
C177     C      0.343780000000     0.648330000000     0.156700000000    -0.0561419  
C178     C      0.366700000000     0.663570000000     0.087140000000    -0.0560331  
C179     C      0.335440000000     0.634340000000     0.125420000000     0.0617755  
C180     C      0.334700000000     0.593400000000     0.149120000000    -0.0308413  
C181     C      0.374920000000     0.677600000000     0.118400000000     0.0615872  
C182     C      0.376380000000     0.718310000000     0.093680000000    -0.0307765  
C183     C      0.363330000000     0.669780000000     0.153080000000    -0.0537309  
C184     C      0.396530000000     0.742400000000     0.095790000000    -0.00547307 
C185     C      0.453760000000     0.719060000000     0.105230000000    -0.00512994 
C186     C      0.347080000000     0.642140000000     0.090750000000    -0.0539401  
C187     C      0.376930000000     0.338480000000     0.375300000000    -0.0306791  
C188     C      0.312050000000     0.461270000000     0.335830000000    -0.0308892  
C189     C      0.318830000000     0.462900000000     0.255920000000    -0.0046585  
C190     C      0.311880000000     0.485580000000     0.315670000000    -0.00520124 
C191     C      0.309280000000     0.406140000000     0.344450000000    -0.0560723  
C192     C      0.378750000000     0.393420000000     0.366230000000    -0.0560802  
C193     C      0.338350000000     0.421290000000     0.335340000000     0.0616809  
C194     C      0.318880000000     0.439260000000     0.277890000000    -0.0311139  
C195     C      0.349700000000     0.378210000000     0.375200000000     0.0617062  
C196     C      0.368040000000     0.360240000000     0.433000000000    -0.0308596  
C197     C      0.315050000000     0.384780000000     0.364180000000    -0.0537575  
C198     C      0.367370000000     0.336590000000     0.454920000000    -0.00521366 
C199     C      0.376600000000     0.314060000000     0.395120000000    -0.0054985  
C200     C      0.372990000000     0.414760000000     0.346430000000    -0.0538398  
C201     C      0.114950000000     0.104290000000     0.781200000000    -0.0306694  
C202     C      0.071240000000     0.196340000000     0.919820000000    -0.0306983  
C203     C      0.049340000000     0.237070000000     0.873980000000    -0.00564821 
C204     C      0.070270000000     0.221940000000     0.935840000000    -0.00528711 
C205     C      0.119100000000     0.167980000000     0.851230000000    -0.053731   
C206     C      0.064810000000     0.133070000000     0.848880000000    -0.0537108  
C207     C      0.084950000000     0.173650000000     0.864780000000     0.0616669  
C208     C      0.051130000000     0.211000000000     0.859830000000    -0.0306244  
C209     C      0.098950000000     0.127410000000     0.835300000000     0.0616335  
C210     C      0.131440000000     0.089760000000     0.842430000000    -0.0305982  
C211     C      0.126180000000     0.145070000000     0.836640000000    -0.0560233  
C212     C      0.133290000000     0.063590000000     0.828730000000    -0.00566104 
C213     C      0.116320000000     0.078590000000     0.765560000000    -0.00544761 
C214     C      0.057760000000     0.155950000000     0.863590000000    -0.0560458  
C215     C      0.900390000000     0.212380000000     0.075670000000    -0.0307908  
C216     C      0.825890000000     0.092200000000     0.116400000000    -0.0306836  
C217     C      0.847190000000     0.087820000000     0.193320000000    -0.00515513 
C218     C      0.824910000000     0.067560000000     0.135680000000    -0.0055017  
C219     C      0.892280000000     0.135090000000     0.097830000000    -0.0537206  
C220     C      0.836580000000     0.168630000000     0.090080000000    -0.0537057  
C221     C      0.858600000000     0.130010000000     0.113080000000     0.0616938  
C222     C      0.847340000000     0.111920000000     0.172560000000    -0.0307632  
C223     C      0.870230000000     0.173690000000     0.074790000000     0.0617658  
C224     C      0.885870000000     0.193100000000     0.017090000000    -0.0307076  
C225     C      0.898200000000     0.156760000000     0.078920000000    -0.0561211  
C226     C      0.885770000000     0.217520000000     0.997210000000    -0.00533574 
C227     C      0.900620000000     0.237470000000     0.057860000000    -0.00527814 
C228     C      0.830720000000     0.147030000000     0.109180000000    -0.0559901  
C229     C      0.755330000000     0.445220000000     0.829710000000    -0.0308777  
C230     C      0.857380000000     0.358350000000     0.916760000000    -0.0309059  
C231     C      0.896310000000     0.322290000000     0.873630000000    -0.00501011 
C232     C      0.871970000000     0.335770000000     0.936010000000    -0.00479138 
C233     C      0.793890000000     0.366240000000     0.847450000000    -0.0539885  
C234     C      0.822050000000     0.412760000000     0.837830000000    -0.0558407  
C235     C      0.828330000000     0.371510000000     0.860550000000     0.0617298  
C236     C      0.880630000000     0.345580000000     0.857540000000    -0.0307176  
C237     C      0.787480000000     0.407300000000     0.824560000000     0.0616495  
C238     C      0.782320000000     0.433820000000     0.771620000000    -0.0308975  
C239     C      0.773650000000     0.383980000000     0.829600000000    -0.0539561  
C240     C      0.754830000000     0.448290000000     0.749450000000    -0.00452272 
C241     C      0.726260000000     0.460310000000     0.810800000000    -0.00461598 
C242     C      0.842390000000     0.394970000000     0.855590000000    -0.0558693  
C243     C      0.130500000000     0.443510000000     0.172640000000    -0.031077   
C244     C      0.065340000000     0.370720000000     0.017060000000    -0.0309072  
C245     C      0.053360000000     0.324790000000     0.054710000000    -0.00540131 
C246     C      0.062030000000     0.347340000000     0.994710000000    -0.00515962 
C247     C      0.124830000000     0.391310000000     0.083550000000    -0.0537391  
C248     C      0.071930000000     0.424390000000     0.104820000000    -0.0537763  
C249     C      0.089010000000     0.387060000000     0.073890000000     0.0617124  
C250     C      0.056910000000     0.349000000000     0.074780000000    -0.0306421  
C251     C      0.107720000000     0.428570000000     0.114660000000     0.0616685  
C252     C      0.140190000000     0.466540000000     0.116200000000    -0.0308675  
C253     C      0.134230000000     0.411880000000     0.103760000000    -0.0560778  
C254     C      0.144020000000     0.490180000000     0.137800000000    -0.00521011 
C255     C      0.133990000000     0.466330000000     0.196220000000    -0.00465883 
C256     C      0.062530000000     0.403830000000     0.084600000000    -0.0560746  
H1       H      0.155310000000     0.895110000000     0.637610000000     0.0415521  
H2       H      0.058270000000     0.827420000000     0.624170000000     0.0357445  
H3       H      0.084650000000     0.863400000000     0.524530000000     0.0357428  
H4       H      0.097950000000     0.960270000000     0.716760000000     0.0372933  
H5       H      0.071170000000     0.796530000000     0.578580000000     0.0377919  
H6       H      0.126590000000     0.950180000000     0.604940000000     0.0359932  
H7       H      0.102690000000     0.916990000000     0.707380000000     0.0355998  
H8       H      0.160830000000     0.982930000000     0.637230000000     0.0467376  
H9       H      0.050830000000     0.832280000000     0.488340000000     0.0449069  
H10      H      0.139230000000     0.858180000000     0.603780000000     0.0451781  
H11      H      0.024050000000     0.795920000000     0.589040000000     0.044803   
H12      H      0.046260000000     0.920420000000     0.628370000000     0.0452199  
H13      H      0.022460000000     0.839880000000     0.596630000000     0.0387334  
H14      H      0.136980000000     0.949440000000     0.740650000000     0.043743   
H15      H      0.088590000000     0.820220000000     0.513030000000     0.038081   
H16      H      0.162940000000     0.938880000000     0.632870000000     0.0392015  
H17      H      0.148900000000     0.919330000000     0.693040000000     0.0384891  
H18      H      0.030160000000     0.883490000000     0.594590000000     0.0414887  
H19      H      0.038070000000     0.861150000000     0.537630000000     0.0387486  
H20      H      0.113820000000     0.982480000000     0.648020000000     0.0379037  
H21      H      0.814450000000     0.651110000000     0.686070000000     0.0459467  
H22      H      0.927710000000     0.672600000000     0.602830000000     0.0356081  
H23      H      0.829450000000     0.707270000000     0.576710000000     0.0357869  
H24      H      0.722420000000     0.604110000000     0.674700000000     0.0390654  
H25      H      0.940860000000     0.715370000000     0.601250000000     0.0389455  
H26      H      0.839140000000     0.591400000000     0.667700000000     0.0356819  
H27      H      0.746990000000     0.626080000000     0.624700000000     0.0357696  
H28      H      0.801720000000     0.552970000000     0.676900000000     0.0422424  
H29      H      0.861950000000     0.736650000000     0.535990000000     0.0444125  
H30      H      0.850800000000     0.684770000000     0.662030000000     0.0457422  
H31      H      0.960870000000     0.701590000000     0.561480000000     0.0440455  
H32      H      0.822860000000     0.614690000000     0.581460000000     0.0409069  
H33      H      0.912090000000     0.672590000000     0.555830000000     0.037815   
H34      H      0.711780000000     0.586830000000     0.634560000000     0.0431325  
H35      H      0.873220000000     0.739150000000     0.583890000000     0.0385769  
H36      H      0.817130000000     0.579900000000     0.627180000000     0.0371334  
H37      H      0.765060000000     0.599450000000     0.602910000000     0.0369895  
H38      H      0.858520000000     0.648470000000     0.557250000000     0.0409633  
H39      H      0.854950000000     0.692850000000     0.540630000000     0.0384568  
H40      H      0.793650000000     0.577390000000     0.708100000000     0.0403322  
H41      H      0.269050000000     0.139370000000     0.644890000000     0.041515   
H42      H      0.365090000000     0.208440000000     0.631090000000     0.0360668  
H43      H      0.326820000000     0.178670000000     0.530730000000     0.0357617  
H44      H      0.333540000000     0.072750000000     0.713480000000     0.0368537  
H45      H      0.348050000000     0.241760000000     0.591090000000     0.0373159  
H46      H      0.298550000000     0.085380000000     0.605040000000     0.0360053  
H47      H      0.326890000000     0.116300000000     0.707990000000     0.0356577  
H48      H      0.267770000000     0.051020000000     0.637030000000     0.0465491  
H49      H      0.356800000000     0.211720000000     0.495120000000     0.0444355  
H50      H      0.281410000000     0.178090000000     0.614210000000     0.0451247  
H51      H      0.395970000000     0.241770000000     0.596650000000     0.0468017  
H52      H      0.377520000000     0.116210000000     0.623400000000     0.0452269  
H53      H      0.397510000000     0.197480000000     0.598170000000     0.0396939  
H54      H      0.296230000000     0.082340000000     0.741200000000     0.044051   
H55      H      0.323090000000     0.222530000000     0.526480000000     0.0369653  
H56      H      0.263180000000     0.095240000000     0.635470000000     0.0394516  
H57      H      0.279960000000     0.113550000000     0.696520000000     0.0386552  
H58      H      0.389700000000     0.154760000000     0.592210000000     0.0417985  
H59      H      0.374660000000     0.179740000000     0.538270000000     0.0393615  
H60      H      0.315140000000     0.052510000000     0.646020000000     0.0377702  
H61      H      0.631200000000     0.407740000000     0.623990000000     0.0414359  
H62      H      0.538810000000     0.340850000000     0.614300000000     0.0359573  
H63      H      0.577460000000     0.360220000000     0.508350000000     0.0355754  
H64      H      0.561060000000     0.482010000000     0.666560000000     0.0380651  
H65      H      0.556010000000     0.304040000000     0.582060000000     0.0373324  
H66      H      0.618000000000     0.458690000000     0.574270000000     0.0358998  
H67      H      0.560860000000     0.438010000000     0.670390000000     0.0357675  
H68      H      0.646150000000     0.493340000000     0.608290000000     0.0452561  
H69      H      0.546490000000     0.324270000000     0.480540000000     0.0438169  
H70      H      0.619730000000     0.367230000000     0.598860000000     0.0450405  
H71      H      0.508150000000     0.304530000000     0.588110000000     0.0469464  
H72      H      0.528840000000     0.432020000000     0.582810000000     0.0451058  
H73      H      0.506570000000     0.348620000000     0.579150000000     0.0399815  
H74      H      0.587580000000     0.472550000000     0.705330000000     0.0451733  
H75      H      0.580360000000     0.316400000000     0.513680000000     0.0365904  
H76      H      0.643450000000     0.449200000000     0.613990000000     0.0388715  
H77      H      0.609240000000     0.436880000000     0.671500000000     0.0387898  
H78      H      0.516970000000     0.391340000000     0.558520000000     0.041563   
H79      H      0.529610000000     0.360220000000     0.515900000000     0.0386601  
H80      H      0.598100000000     0.495310000000     0.605290000000     0.0376031  
H81      H      0.904890000000     0.926540000000     0.343760000000     0.0451589  
H82      H      0.875450000000     0.835550000000     0.345850000000     0.0357685  
H83      H      0.860180000000     0.871340000000     0.448080000000     0.0357234  
H84      H      0.857700000000     0.970820000000     0.257590000000     0.037167   
H85      H      0.859070000000     0.805140000000     0.391080000000     0.0377366  
H86      H      0.831950000000     0.963150000000     0.370090000000     0.0359784  
H87      H      0.845630000000     0.928130000000     0.267040000000     0.035571   
H88      H      0.802730000000     0.998480000000     0.338960000000     0.0467978  
H89      H      0.889580000000     0.836940000000     0.481340000000     0.0444609  
H90      H      0.915190000000     0.888180000000     0.376190000000     0.0415052  
H91      H      0.905090000000     0.800740000000     0.377920000000     0.0446525  
H92      H      0.791660000000     0.910880000000     0.338860000000     0.0414853  
H93      H      0.914500000000     0.844410000000     0.371950000000     0.0387627  
H94      H      0.816460000000     0.963110000000     0.234810000000     0.0439031  
H95      H      0.849070000000     0.828500000000     0.457780000000     0.037994   
H96      H      0.792640000000     0.954890000000     0.343950000000     0.0392783  
H97      H      0.800720000000     0.934210000000     0.283100000000     0.0385722  
H98      H      0.801970000000     0.872490000000     0.371250000000     0.0451844  
H99      H      0.905430000000     0.865650000000     0.432670000000     0.038738   
H100     H      0.848700000000     0.993950000000     0.325780000000     0.0378296  
H101     H      0.664420000000     0.168050000000     0.359710000000     0.0452516  
H102     H      0.561800000000     0.167320000000     0.453670000000     0.0355803  
H103     H      0.535380000000     0.198090000000     0.350220000000     0.0359509  
H104     H      0.722600000000     0.101400000000     0.339490000000     0.039101   
H105     H      0.500540000000     0.180840000000     0.459320000000     0.0377919  
H106     H      0.642650000000     0.138000000000     0.276910000000     0.0356066  
H107     H      0.670240000000     0.104820000000     0.378330000000     0.0359392  
H108     H      0.675190000000     0.105250000000     0.242410000000     0.0434018  
H109     H      0.501620000000     0.231500000000     0.381940000000     0.0460915  
H110     H      0.617990000000     0.192370000000     0.390270000000     0.0414065  
H111     H      0.528330000000     0.200810000000     0.485890000000     0.0429937  
H112     H      0.587120000000     0.111390000000     0.340350000000     0.0413676  
H113     H      0.577630000000     0.197280000000     0.442440000000     0.0379866  
H114     H      0.703000000000     0.071890000000     0.344420000000     0.0460149  
H115     H      0.482210000000     0.201990000000     0.387560000000     0.039029   
H116     H      0.626450000000     0.107920000000     0.286790000000     0.0380866  
H117     H      0.642580000000     0.088540000000     0.345960000000     0.0382606  
H118     H      0.540720000000     0.135690000000     0.370940000000     0.0452507  
H119     H      0.562190000000     0.215190000000     0.382360000000     0.0383917  
H120     H      0.703690000000     0.124090000000     0.270090000000     0.0379213  
H121     H      0.285860000000     0.902740000000     0.858340000000     0.0415459  
H122     H      0.391350000000     0.842900000000     0.871370000000     0.0357527  
H123     H      0.362750000000     0.876180000000     0.972460000000     0.0357341  
H124     H      0.335170000000     0.969500000000     0.776350000000     0.0373207  
H125     H      0.383120000000     0.810650000000     0.915630000000     0.0383119  
H126     H      0.304690000000     0.960180000000     0.887800000000     0.0359727  
H127     H      0.337060000000     0.926400000000     0.788310000000     0.035594   
H128     H      0.266310000000     0.989310000000     0.852390000000     0.0466532  
H129     H      0.401540000000     0.846700000000     0.006950000000     0.0443591  
H130     H      0.307250000000     0.867470000000     0.893130000000     0.0452573  
H131     H      0.430020000000     0.813090000000     0.904960000000     0.0453006  
H132     H      0.390430000000     0.935570000000     0.867540000000     0.0451284  
H133     H      0.425870000000     0.856970000000     0.898840000000     0.0385545  
H134     H      0.298930000000     0.955240000000     0.752010000000     0.0438662  
H135     H      0.364100000000     0.833020000000     0.983790000000     0.0388232  
H136     H      0.271290000000     0.945540000000     0.859570000000     0.0390822  
H137     H      0.290320000000     0.925690000000     0.801130000000     0.0386008  
H138     H      0.411850000000     0.900260000000     0.902230000000     0.0413538  
H139     H      0.409080000000     0.876540000000     0.958130000000     0.0380967  
H140     H      0.313450000000     0.992160000000     0.843150000000     0.0380628  
H141     H      0.615260000000     0.663200000000     0.793940000000     0.0460453  
H142     H      0.508240000000     0.691320000000     0.877110000000     0.0356312  
H143     H      0.611520000000     0.709590000000     0.917300000000     0.0357739  
H144     H      0.685650000000     0.600480000000     0.792200000000     0.0390918  
H145     H      0.506470000000     0.734350000000     0.887530000000     0.0393896  
H146     H      0.567860000000     0.609410000000     0.797730000000     0.0358359  
H147     H      0.669230000000     0.620410000000     0.847410000000     0.0356976  
H148     H      0.588530000000     0.567180000000     0.777930000000     0.0426682  
H149     H      0.583700000000     0.738480000000     0.962760000000     0.0438076  
H150     H      0.590150000000     0.698800000000     0.825470000000     0.0458393  
H151     H      0.480090000000     0.720000000000     0.922600000000     0.0443288  
H152     H      0.590680000000     0.619080000000     0.888520000000     0.0408797  
H153     H      0.519530000000     0.685050000000     0.924450000000     0.0375523  
H154     H      0.687280000000     0.577630000000     0.826970000000     0.0427156  
H155     H      0.578640000000     0.747160000000     0.915430000000     0.0390451  
H156     H      0.583240000000     0.589930000000     0.834210000000     0.0372422  
H157     H      0.640390000000     0.596170000000     0.862340000000     0.0368351  
H158     H      0.566210000000     0.654680000000     0.920250000000     0.0408479  
H159     H      0.579340000000     0.695620000000     0.947690000000     0.0380815  
H160     H      0.607030000000     0.592300000000     0.753400000000     0.0405733  
H161     H      0.657420000000     0.882210000000     0.115110000000     0.0452338  
H162     H      0.619420000000     0.944060000000     0.213730000000     0.0355329  
H163     H      0.640000000000     0.974810000000     0.108680000000     0.0359805  
H164     H      0.591830000000     0.817950000000     0.101490000000     0.037865   
H165     H      0.614880000000     0.987830000000     0.219170000000     0.0364296  
H166     H      0.600210000000     0.881400000000     0.037720000000     0.0356858  
H167     H      0.578500000000     0.851230000000     0.142840000000     0.0357575  
H168     H      0.566930000000     0.847430000000     0.007260000000     0.0439622  
H169     H      0.674250000000     0.008730000000     0.137840000000     0.0464907  
H170     H      0.672570000000     0.920970000000     0.144280000000     0.0416988  
H171     H      0.653570000000     0.977550000000     0.244250000000     0.0438795  
H172     H      0.546900000000     0.904590000000     0.106810000000     0.0413713  
H173     H      0.665380000000     0.945990000000     0.198370000000     0.0390366  
H174     H      0.545110000000     0.816920000000     0.113540000000     0.0446191  
H175     H      0.627980000000     0.007550000000     0.151730000000     0.0369877  
H176     H      0.554180000000     0.878980000000     0.052640000000     0.0383827  
H177     H      0.541340000000     0.861110000000     0.114770000000     0.0386418  
H178     H      0.562030000000     0.943350000000     0.136080000000     0.0450004  
H179     H      0.677680000000     0.964400000000     0.135560000000     0.0397978  
H180     H      0.606070000000     0.837820000000     0.032160000000     0.0381381  
H181     H      0.079140000000     0.656240000000     0.420420000000     0.0414662  
H182     H      0.093140000000     0.583340000000     0.331540000000     0.0357271  
H183     H      0.188710000000     0.624130000000     0.345520000000     0.0356603  
H184     H      0.991720000000     0.713050000000     0.357300000000     0.0379319  
H185     H      0.141360000000     0.555260000000     0.345640000000     0.0375119  
H186     H      0.101930000000     0.710960000000     0.381400000000     0.0357375  
H187     H      0.006090000000     0.670600000000     0.366480000000     0.0356721  
H188     H      0.067800000000     0.743550000000     0.414030000000     0.0450818  
H189     H      0.224060000000     0.592130000000     0.312800000000     0.0446884  
H190     H      0.115170000000     0.620030000000     0.407390000000     0.0451001  
H191     H      0.127300000000     0.550830000000     0.298780000000     0.0449501  
H192     H      0.079570000000     0.674450000000     0.304990000000     0.0451592  
H193     H      0.116060000000     0.594220000000     0.291010000000     0.0388997  
H194     H      0.970800000000     0.702720000000     0.399040000000     0.0445365  
H195     H      0.203420000000     0.581710000000     0.354630000000     0.0377965  
H196     H      0.078510000000     0.700120000000     0.421650000000     0.0387594  
H197     H      0.021590000000     0.676140000000     0.412790000000     0.0386797  
H198     H      0.115530000000     0.638220000000     0.291940000000     0.0415126  
H199     H      0.172940000000     0.618500000000     0.299330000000     0.0388666  
H200     H      0.054240000000     0.739340000000     0.366980000000     0.0376457  
H201     H      0.340940000000     0.631540000000     0.066480000000     0.0450932  
H202     H      0.445330000000     0.681700000000     0.120300000000     0.0356494  
H203     H      0.348730000000     0.721090000000     0.104440000000     0.0357956  
H204     H      0.315770000000     0.562770000000     0.117790000000     0.0374781  
H205     H      0.456880000000     0.723970000000     0.134750000000     0.0377076  
H206     H      0.264980000000     0.630190000000     0.125500000000     0.0356959  
H207     H      0.362120000000     0.590840000000     0.137620000000     0.0357076  
H208     H      0.230230000000     0.595600000000     0.152210000000     0.0447993  
H209     H      0.383110000000     0.755770000000     0.077520000000     0.0452444  
H210     H      0.375430000000     0.669160000000     0.060030000000     0.0413987  
H211     H      0.480950000000     0.715860000000     0.093650000000     0.0445829  
H212     H      0.335210000000     0.642670000000     0.183830000000     0.0415978  
H213     H      0.432160000000     0.689090000000     0.073820000000     0.0386962  
H214     H      0.328590000000     0.555730000000     0.164290000000     0.0448546  
H215     H      0.394840000000     0.749280000000     0.124510000000     0.0375122  
H216     H      0.279380000000     0.622190000000     0.171350000000     0.0390395  
H217     H      0.337300000000     0.598710000000     0.178570000000     0.0390283  
H218     H      0.369520000000     0.680370000000     0.177360000000     0.0451094  
H219     H      0.374430000000     0.712650000000     0.064330000000     0.0388034  
H220     H      0.253010000000     0.588160000000     0.110090000000     0.0376755  
H221     H      0.395570000000     0.426270000000     0.339690000000     0.0451115  
H222     H      0.366250000000     0.335820000000     0.346970000000     0.036009   
H223     H      0.350780000000     0.373690000000     0.447380000000     0.0355139  
H224     H      0.347110000000     0.468370000000     0.250830000000     0.0377544  
H225     H      0.349180000000     0.306240000000     0.393050000000     0.0378794  
H226     H      0.323840000000     0.464040000000     0.363670000000     0.0357213  
H227     H      0.335730000000     0.425820000000     0.263000000000     0.0357884  
H228     H      0.294100000000     0.498370000000     0.330700000000     0.0448173  
H229     H      0.379730000000     0.339800000000     0.482350000000     0.0436212  
H230     H      0.405780000000     0.388790000000     0.374500000000     0.0414218  
H231     H      0.395370000000     0.301550000000     0.380840000000     0.0467271  
H232     H      0.282220000000     0.410810000000     0.336340000000     0.0415681  
H233     H      0.405120000000     0.344990000000     0.373090000000     0.0391068  
H234     H      0.305910000000     0.459660000000     0.228780000000     0.0446665  
H235     H      0.338940000000     0.331240000000     0.459390000000     0.0372439  
H236     H      0.283900000000     0.454910000000     0.339250000000     0.0389431  
H237     H      0.290970000000     0.432140000000     0.279300000000     0.0389045  
H238     H      0.292470000000     0.373270000000     0.370950000000     0.0452033  
H239     H      0.395970000000     0.367370000000     0.432410000000     0.038368   
H240     H      0.339540000000     0.493120000000     0.316150000000     0.0374909  
H241     H      0.031200000000     0.159810000000     0.874080000000     0.0416003  
H242     H      0.094590000000     0.114800000000     0.765480000000     0.0356384  
H243     H      0.123250000000     0.089570000000     0.871890000000     0.0359489  
H244     H      0.074720000000     0.246420000000     0.866460000000     0.0374205  
H245     H      0.088680000000     0.071020000000     0.765670000000     0.0367685  
H246     H      0.092610000000     0.185940000000     0.934240000000     0.035606   
H247     H      0.057710000000     0.211430000000     0.829960000000     0.0360224  
H248     H      0.062680000000     0.220880000000     0.965390000000     0.0443576  
H249     H      0.154580000000     0.053840000000     0.844200000000     0.0465632  
H250     H      0.043650000000     0.119640000000     0.848130000000     0.0451147  
H251     H      0.125590000000     0.079400000000     0.736500000000     0.044198   
H252     H      0.140300000000     0.181380000000     0.852120000000     0.0451011  
H253     H      0.141580000000     0.113040000000     0.777180000000     0.0388097  
H254     H      0.026910000000     0.246630000000     0.859980000000     0.0466147  
H255     H      0.107250000000     0.054620000000     0.834750000000     0.0375268  
H256     H      0.045040000000     0.187310000000     0.925190000000     0.0390469  
H257     H      0.024290000000     0.202420000000     0.863190000000     0.0394124  
H258     H      0.152840000000     0.141140000000     0.826470000000     0.0415387  
H259     H      0.158620000000     0.098040000000     0.840510000000     0.0394459  
H260     H      0.097710000000     0.229770000000     0.934190000000     0.0368104  
H261     H      0.804540000000     0.143680000000     0.121010000000     0.0418633  
H262     H      0.891850000000     0.214370000000     0.104880000000     0.0359916  
H263     H      0.866560000000     0.180850000000     0.002990000000     0.035608   
H264     H      0.874590000000     0.079910000000     0.191980000000     0.0367862  
H265     H      0.873970000000     0.246020000000     0.062330000000     0.0379152  
H266     H      0.831840000000     0.089230000000     0.086720000000     0.0360496  
H267     H      0.869000000000     0.123500000000     0.184170000000     0.0357914  
H268     H      0.802540000000     0.056640000000     0.124140000000     0.0465657  
H269     H      0.895910000000     0.214910000000     0.968700000000     0.0439022  
H270     H      0.814900000000     0.181560000000     0.087340000000     0.0452581  
H271     H      0.921110000000     0.248860000000     0.071810000000     0.0466293  
H272     H      0.914040000000     0.122250000000     0.100840000000     0.0450743  
H273     H      0.928100000000     0.204840000000     0.075300000000     0.0394801  
H274     H      0.840720000000     0.091250000000     0.222730000000     0.0445518  
H275     H      0.857620000000     0.224060000000     0.995350000000     0.0370189  
H276     H      0.798940000000     0.100760000000     0.118680000000     0.0398144  
H277     H      0.821200000000     0.121230000000     0.177020000000     0.0396674  
H278     H      0.924550000000     0.160320000000     0.067680000000     0.0415562  
H279     H      0.913140000000     0.184980000000     0.014950000000     0.0385182  
H280     H      0.850430000000     0.057910000000     0.129690000000     0.0372005  
H281     H      0.868990000000     0.399450000000     0.865360000000     0.0410204  
H282     H      0.744320000000     0.438270000000     0.856170000000     0.0357037  
H283     H      0.791560000000     0.418310000000     0.754500000000     0.035577   
H284     H      0.878010000000     0.307010000000     0.866970000000     0.0390725  
H285     H      0.700830000000     0.449790000000     0.810690000000     0.0384135  
H286     H      0.832970000000     0.364490000000     0.931750000000     0.035598   
H287     H      0.873650000000     0.342210000000     0.828190000000     0.0359244  
H288     H      0.882000000000     0.341030000000     0.963720000000     0.0434237  
H289     H      0.768780000000     0.457090000000     0.725920000000     0.0442935  
H290     H      0.833280000000     0.430680000000     0.834340000000     0.0410669  
H291     H      0.721540000000     0.476970000000     0.827310000000     0.044082   
H292     H      0.782780000000     0.348280000000     0.851010000000     0.0457517  
H293     H      0.778820000000     0.456960000000     0.836100000000     0.0380731  
H294     H      0.922470000000     0.318580000000     0.860010000000     0.045789   
H295     H      0.734760000000     0.435530000000     0.737770000000     0.0370612  
H296     H      0.877760000000     0.373060000000     0.918250000000     0.0377316  
H297     H      0.901260000000     0.360160000000     0.858470000000     0.0382791  
H298     H      0.747100000000     0.379550000000     0.819560000000     0.0456065  
H299     H      0.805960000000     0.445510000000     0.777640000000     0.0380744  
H300     H      0.849550000000     0.322770000000     0.940110000000     0.03799    
H301     H      0.034660000000     0.400950000000     0.077520000000     0.041547   
H302     H      0.111980000000     0.430750000000     0.186830000000     0.0357421  
H303     H      0.128830000000     0.470810000000     0.088620000000     0.0357518  
H304     H      0.079770000000     0.315440000000     0.055410000000     0.0379063  
H305     H      0.106630000000     0.473310000000     0.202250000000     0.0380988  
H306     H      0.083330000000     0.383360000000     0.001920000000     0.035636   
H307     H      0.068590000000     0.345560000000     0.102490000000     0.0359718  
H308     H      0.048360000000     0.351470000000     0.968230000000     0.0437409  
H309     H      0.163850000000     0.501970000000     0.123600000000     0.0446742  
H310     H      0.051280000000     0.437070000000     0.113030000000     0.0452081  
H311     H      0.146780000000     0.461450000000     0.222850000000     0.0448237  
H312     H      0.145460000000     0.378550000000     0.075530000000     0.0451998  
H313     H      0.157280000000     0.434700000000     0.170360000000     0.0388036  
H314     H      0.033760000000     0.313290000000     0.069760000000     0.0466092  
H315     H      0.117740000000     0.499700000000     0.137620000000     0.0377524  
H316     H      0.038410000000     0.379310000000     0.019390000000     0.0385114  
H317     H      0.029730000000     0.357010000000     0.078530000000     0.0391018  
H318     H      0.162080000000     0.414680000000     0.111010000000     0.0415137  
H319     H      0.167250000000     0.458400000000     0.112240000000     0.0386964  
H320     H      0.089440000000     0.340650000000     0.988210000000     0.0372327  
In1      In     0.974460000000     0.281860000000     0.965480000000     2.41125    
In2      In     0.227850000000     0.526890000000     0.229120000000     2.40341    
In3      In     0.485070000000     0.782190000000     0.012090000000     2.40052    
In4      In     0.747250000000     0.034690000000     0.236070000000     2.4088     
In5      In     0.450220000000     0.268820000000     0.486760000000     2.40811    
In6      In     0.687370000000     0.523390000000     0.722310000000     2.40872    
In7      In     0.966210000000     0.768990000000     0.480900000000     2.40251    
In8      In     0.213120000000     0.017980000000     0.742790000000     2.41094    
N1       N      0.038580000000     0.810530000000     0.536040000000    -0.168732   
N2       N      0.075530000000     0.846330000000     0.576250000000    -0.11349    
N3       N      0.110270000000     0.932760000000     0.654490000000    -0.113466   
N4       N      0.146800000000     0.970220000000     0.691470000000    -0.16852    
N5       N      0.914380000000     0.723780000000     0.551470000000    -0.168588   
N6       N      0.877210000000     0.689760000000     0.594700000000    -0.113295   
N7       N      0.793530000000     0.611650000000     0.650590000000    -0.112695   
N8       N      0.751840000000     0.571540000000     0.669800000000    -0.168086   
N9       N      0.376050000000     0.229950000000     0.543830000000    -0.168811   
N10      N      0.342430000000     0.192330000000     0.583160000000    -0.113641   
N11      N      0.316580000000     0.102010000000     0.654580000000    -0.113578   
N12      N      0.283170000000     0.063140000000     0.691230000000    -0.168846   
N13      N      0.527480000000     0.311080000000     0.532960000000    -0.168795   
N14      N      0.561660000000     0.351990000000     0.563280000000    -0.113685   
N15      N      0.586300000000     0.446990000000     0.619710000000    -0.113653   
N16      N      0.616830000000     0.486120000000     0.658350000000    -0.168537   
N17      N      0.896140000000     0.815520000000     0.432130000000    -0.169388   
N18      N      0.864020000000     0.854810000000     0.395270000000    -0.11354    
N19      N      0.842820000000     0.944360000000     0.320130000000    -0.113533   
N20      N      0.811580000000     0.984390000000     0.284340000000    -0.16853    
N21      N      0.506780000000     0.215540000000     0.435730000000    -0.168488   
N22      N      0.547570000000     0.179570000000     0.400060000000    -0.113281   
N23      N      0.657320000000     0.124440000000     0.329680000000    -0.113334   
N24      N      0.696660000000     0.088850000000     0.291450000000    -0.168323   
N25      N      0.414030000000     0.825670000000     0.958680000000    -0.168113   
N26      N      0.372530000000     0.860010000000     0.920230000000    -0.113384   
N27      N      0.325300000000     0.942850000000     0.839910000000    -0.113461   
N28      N      0.284210000000     0.976420000000     0.799480000000    -0.168273   
N29      N      0.530650000000     0.734910000000     0.940110000000    -0.168402   
N30      N      0.561610000000     0.700750000000     0.892240000000    -0.113203   
N31      N      0.619440000000     0.618240000000     0.818970000000    -0.112644   
N32      N      0.643820000000     0.574730000000     0.788740000000    -0.167936   
N33      N      0.664020000000     0.996220000000     0.193160000000    -0.168997   
N34      N      0.626010000000     0.958080000000     0.159510000000    -0.113683   
N35      N      0.593460000000     0.867420000000     0.091910000000    -0.113481   
N36      N      0.557350000000     0.828450000000     0.058200000000    -0.169648   
N37      N      0.178470000000     0.568400000000     0.306510000000    -0.169001   
N38      N      0.139220000000     0.604980000000     0.342440000000    -0.113592   
N39      N      0.055700000000     0.689580000000     0.369950000000    -0.113586   
N40      N      0.016490000000     0.726320000000     0.405560000000    -0.169066   
N41      N      0.434530000000     0.738720000000     0.086240000000    -0.169371   
N42      N      0.395100000000     0.699850000000     0.115810000000    -0.113639   
N43      N      0.315360000000     0.612070000000     0.128000000000    -0.113646   
N44      N      0.276850000000     0.572670000000     0.157280000000    -0.168982   
N45      N      0.385640000000     0.317180000000     0.434340000000    -0.168941   
N46      N      0.354520000000     0.355980000000     0.395470000000    -0.11356    
N47      N      0.333490000000     0.443520000000     0.315030000000    -0.113559   
N48      N      0.300840000000     0.482130000000     0.277090000000    -0.169259   
N49      N      0.139400000000     0.063160000000     0.788670000000    -0.169012   
N50      N      0.105190000000     0.103520000000     0.820490000000    -0.113637   
N51      N      0.078860000000     0.197420000000     0.880070000000    -0.11363    
N52      N      0.045610000000     0.237270000000     0.914360000000    -0.168766   
N53      N      0.907040000000     0.235410000000     0.017960000000    -0.168634   
N54      N      0.875340000000     0.196400000000     0.055850000000    -0.113582   
N55      N      0.853770000000     0.107650000000     0.133060000000    -0.113666   
N56      N      0.821790000000     0.070980000000     0.175760000000    -0.168886   
N57      N      0.735800000000     0.466250000000     0.772390000000    -0.168513   
N58      N      0.765680000000     0.424990000000     0.805730000000    -0.11319    
N59      N      0.848450000000     0.352520000000     0.878360000000    -0.113234   
N60      N      0.900160000000     0.323790000000     0.914020000000    -0.168054   
N61      N      0.154180000000     0.485140000000     0.176250000000    -0.168884   
N62      N      0.116260000000     0.449830000000     0.136060000000    -0.113483   
N63      N      0.080330000000     0.365350000000     0.053660000000    -0.1135     
N64      N      0.042980000000     0.328590000000     0.015970000000    -0.168906   
O1       O      0.946830000000     0.267350000000     0.016990000000    -0.495638   
O2       O      0.935260000000     0.250090000000     0.966070000000    -0.511573   
O3       O      0.928350000000     0.309060000000     0.965910000000    -0.510023   
O4       O      0.012140000000     0.314530000000     0.965260000000    -0.51189    
O5       O      0.018590000000     0.253250000000     0.965960000000    -0.511532   
O6       O      0.004040000000     0.296190000000     0.015950000000    -0.497135   
O7       O      0.948050000000     0.297350000000     0.913940000000    -0.494565   
O8       O      0.000950000000     0.266180000000     0.913960000000    -0.494338   
O9       O      0.227880000000     0.559510000000     0.190480000000    -0.501303   
O10      O      0.276420000000     0.539690000000     0.196160000000    -0.505998   
O11      O      0.179370000000     0.537410000000     0.264040000000    -0.504436   
O12      O      0.195480000000     0.516180000000     0.178260000000    -0.504731   
O13      O      0.266930000000     0.495030000000     0.227760000000    -0.50251    
O14      O      0.187480000000     0.495830000000     0.227200000000    -0.500879   
O15      O      0.227260000000     0.557730000000     0.271030000000    -0.501059   
O16      O      0.261260000000     0.514170000000     0.278120000000    -0.506291   
O17      O      0.457430000000     0.795980000000     0.960160000000    -0.498686   
O18      O      0.442960000000     0.812290000000     0.011020000000    -0.498208   
O19      O      0.484220000000     0.750980000000     0.053400000000    -0.504912   
O20      O      0.481920000000     0.753170000000     0.967580000000    -0.499512   
O21      O      0.526740000000     0.812520000000     0.008600000000    -0.505965   
O22      O      0.533740000000     0.763760000000     0.985950000000    -0.502771   
O23      O      0.435760000000     0.770330000000     0.044850000000    -0.502345   
O24      O      0.515380000000     0.797860000000     0.061330000000    -0.508024   
O25      O      0.710700000000     0.023440000000     0.188600000000    -0.497485   
O26      O      0.700440000000     0.008140000000     0.241180000000    -0.511833   
O27      O      0.782480000000     0.000870000000     0.234240000000    -0.510296   
O28      O      0.774730000000     0.044160000000     0.181720000000    -0.494872   
O29      O      0.714280000000     0.069540000000     0.238130000000    -0.509782   
O30      O      0.794090000000     0.061000000000     0.230390000000    -0.511208   
O31      O      0.775450000000     0.018250000000     0.285910000000    -0.494704   
O32      O      0.728180000000     0.052960000000     0.288950000000    -0.494235   
O33      O      0.403170000000     0.242460000000     0.490100000000    -0.510892   
O34      O      0.423410000000     0.256700000000     0.540260000000    -0.493639   
O35      O      0.473000000000     0.250490000000     0.435610000000    -0.495674   
O36      O      0.422660000000     0.283770000000     0.435440000000    -0.4953     
O37      O      0.479910000000     0.284520000000     0.536190000000    -0.49633    
O38      O      0.414060000000     0.302240000000     0.485920000000    -0.511616   
O39      O      0.485720000000     0.235050000000     0.487570000000    -0.510362   
O40      O      0.498150000000     0.294590000000     0.482960000000    -0.510631   
O41      O      0.637120000000     0.500450000000     0.714200000000    -0.504481   
O42      O      0.666890000000     0.510110000000     0.666520000000    -0.502231   
O43      O      0.690260000000     0.549960000000     0.770340000000    -0.503125   
O44      O      0.700010000000     0.500320000000     0.772880000000    -0.503519   
O45      O      0.696740000000     0.554570000000     0.682380000000    -0.504559   
O46      O      0.724930000000     0.490790000000     0.722270000000    -0.505382   
O47      O      0.639840000000     0.545320000000     0.743860000000    -0.499385   
O48      O      0.742650000000     0.537770000000     0.705970000000    -0.500181   
O49      O      0.995690000000     0.780500000000     0.533210000000    -0.502399   
O50      O      0.008320000000     0.798950000000     0.483560000000    -0.50014    
O51      O      0.915850000000     0.755160000000     0.509660000000    -0.506052   
O52      O      0.927610000000     0.801110000000     0.482180000000    -0.503971   
O53      O      0.015300000000     0.757580000000     0.447540000000    -0.503774   
O54      O      0.935280000000     0.783210000000     0.431060000000    -0.506416   
O55      O      0.965150000000     0.737530000000     0.521760000000    -0.499705   
O56      O      0.967100000000     0.737800000000     0.439550000000    -0.502829   
O57      O      0.254170000000     0.048670000000     0.742770000000    -0.511728   
O58      O      0.241540000000     0.032270000000     0.691500000000    -0.495233   
O59      O      0.239720000000     0.005330000000     0.795950000000    -0.495276   
O60      O      0.183180000000     0.033760000000     0.792180000000    -0.495493   
O61      O      0.186950000000     0.001950000000     0.691550000000    -0.496202   
O62      O      0.169780000000     0.047090000000     0.739120000000    -0.512183   
O63      O      0.256300000000     0.988720000000     0.745970000000    -0.51039    
O64      O      0.174140000000     0.986020000000     0.743140000000    -0.510313   


