data_structure

_audit_creation_method RASPA-1.0
_audit_creation_date 2023-6-5
_audit_author_name 'Poobodin Mano'

_cell_length_a    56.3164
_cell_length_b    56.0851
_cell_length_c    29.0386
_cell_angle_alpha 89.78
_cell_angle_beta  90.22
_cell_angle_gamma 89.9997
_cell_volume      91717.4

_symmetry_cell_setting          triclinic
_symmetry_space_group_name_Hall 'P 1'
_symmetry_space_group_name_H-M  'P 1'
_symmetry_Int_Tables_number     1

_symmetry_equiv_pos_as_xyz 'x,y,z'

loop_
_atom_site_label
_atom_site_type_symbol
_atom_site_fract_x
_atom_site_fract_y
_atom_site_fract_z
_atom_site_charge
C1       C      0.320290000000     0.374800000000     0.014150000000     0.40183    
C2       C      0.300200000000     0.303410000000     0.942760000000     0.404302   
C3       C      0.370780000000     0.323310000000     0.006950000000     0.405305   
C4       C      0.299730000000     0.304750000000     0.080530000000     0.40519    
C5       C      0.326500000000     0.624090000000     0.990910000000     0.405026   
C6       C      0.300140000000     0.695920000000     0.042180000000     0.404207   
C7       C      0.375810000000     0.676770000000     0.992240000000     0.4056     
C8       C      0.311560000000     0.688780000000     0.901570000000     0.404948   
C9       C      0.619610000000     0.327090000000     0.024210000000     0.405548   
C10      C      0.690330000000     0.303840000000     0.967500000000     0.405078   
C11      C      0.673010000000     0.378490000000     0.018980000000     0.409666   
C12      C      0.684570000000     0.314400000000     0.111270000000     0.408679   
C13      C      0.677690000000     0.627710000000     0.027440000000     0.406331   
C14      C      0.695930000000     0.698710000000     0.964070000000     0.405239   
C15      C      0.624250000000     0.678190000000     0.022410000000     0.408422   
C16      C      0.687720000000     0.696480000000     0.109630000000     0.408834   
C17      C      0.831510000000     0.129940000000     0.531420000000     0.406458   
C18      C      0.807970000000     0.190180000000     0.607420000000     0.403989   
C19      C      0.878230000000     0.188790000000     0.516250000000     0.406159   
C20      C      0.812740000000     0.203800000000     0.460310000000     0.405242   
C21      C      0.869120000000     0.816860000000     0.508980000000     0.403541   
C22      C      0.809060000000     0.826100000000     0.622780000000     0.403935   
C23      C      0.832850000000     0.880480000000     0.531680000000     0.405226   
C24      C      0.795720000000     0.807720000000     0.483860000000     0.404011   
C25      C      0.113570000000     0.816950000000     0.475820000000     0.404628   
C26      C      0.174160000000     0.803410000000     0.395820000000     0.404651   
C27      C      0.168260000000     0.866330000000     0.505630000000     0.40393    
C28      C      0.189510000000     0.795340000000     0.536780000000     0.405099   
C29      C      0.123430000000     0.168170000000     0.512750000000     0.405058   
C30      C      0.196520000000     0.186560000000     0.571550000000     0.408261   
C31      C      0.174400000000     0.113300000000     0.525360000000     0.405992   
C32      C      0.188680000000     0.175020000000     0.428770000000     0.405955   
C33      C      0.189090000000     0.930060000000     0.502020000000    -0.031215   
C34      C      0.160840000000     0.052670000000     0.569170000000    -0.03114    
C35      C      0.192720000000     0.075290000000     0.503110000000    -0.00496479 
C36      C      0.168420000000     0.078630000000     0.576450000000    -0.00463914 
C37      C      0.192430000000     0.999110000000     0.564320000000    -0.053823   
C38      C      0.153770000000     0.979550000000     0.516960000000    -0.0530258  
C39      C      0.175640000000     0.014260000000     0.543900000000     0.0619783  
C40      C      0.183950000000     0.049620000000     0.499010000000    -0.0307733  
C41      C      0.170880000000     0.964390000000     0.536420000000     0.0609677  
C42      C      0.166730000000     0.925370000000     0.571610000000    -0.0417182  
C43      C      0.190140000000     0.974390000000     0.560730000000    -0.0555412  
C44      C      0.160900000000     0.898890000000     0.561590000000     0.0357685  
C45      C      0.183410000000     0.905230000000     0.484310000000    -0.00341732 
C46      C      0.156050000000     0.004300000000     0.520610000000    -0.0561918  
C47      C      0.926500000000     0.812400000000     0.442710000000    -0.031529   
C48      C      0.051740000000     0.803310000000     0.512110000000    -0.0308364  
C49      C      0.076520000000     0.822690000000     0.432170000000    -0.00454341 
C50      C      0.077840000000     0.796980000000     0.504860000000    -0.00469593 
C51      C      0.000690000000     0.791180000000     0.449930000000    -0.0536235  
C52      C      0.978760000000     0.827110000000     0.500950000000    -0.052775   
C53      C      0.014640000000     0.808640000000     0.471260000000     0.0620371  
C54      C      0.050440000000     0.827700000000     0.443090000000    -0.0308524  
C55      C      0.964820000000     0.809500000000     0.480020000000     0.0611981  
C56      C      0.930780000000     0.789070000000     0.511630000000    -0.0416265  
C57      C      0.976000000000     0.791540000000     0.454130000000    -0.0556333  
C58      C      0.904530000000     0.792460000000     0.525630000000     0.0359822  
C59      C      0.900700000000     0.819180000000     0.452080000000    -0.00202913 
C60      C      0.003470000000     0.826780000000     0.496640000000    -0.0561146  
C61      C      0.851010000000     0.067540000000     0.558010000000    -0.0308875  
C62      C      0.821700000000     0.943520000000     0.500430000000    -0.0308382  
C63      C      0.853510000000     0.916220000000     0.560130000000    -0.00496052 
C64      C      0.827850000000     0.917800000000     0.487860000000    -0.0049929  
C65      C      0.854520000000     0.994990000000     0.507670000000    -0.0537852  
C66      C      0.818010000000     0.014390000000     0.560730000000    -0.0531387  
C67      C      0.838820000000     0.979770000000     0.530690000000     0.0620574  
C68      C      0.846230000000     0.942040000000     0.569320000000    -0.0308744  
C69      C      0.833670000000     0.029640000000     0.537550000000     0.0610562  
C70      C      0.822910000000     0.065120000000     0.495540000000    -0.0409083  
C71      C      0.852010000000     0.019690000000     0.510860000000    -0.0555599  
C72      C      0.815530000000     0.091530000000     0.500160000000     0.0321553  
C73      C      0.844720000000     0.093360000000     0.568620000000    -0.00556927 
C74      C      0.820470000000     0.989640000000     0.557370000000    -0.0560702  
C75      C      0.940560000000     0.211300000000     0.532340000000    -0.0318539  
C76      C      0.059030000000     0.163020000000     0.483920000000    -0.031075   
C77      C      0.089910000000     0.190620000000     0.544660000000    -0.00455315 
C78      C      0.085340000000     0.165330000000     0.472020000000    -0.00389927 
C79      C      0.013480000000     0.203540000000     0.487090000000    -0.0534759  
C80      C      0.987780000000     0.170430000000     0.539140000000    -0.0533916  
C81      C      0.025600000000     0.185730000000     0.511570000000     0.0618509  
C82      C      0.063280000000     0.187070000000     0.552470000000    -0.030956   
C83      C      0.975660000000     0.188200000000     0.514480000000     0.0616795  
C84      C      0.939460000000     0.180830000000     0.471200000000    -0.0429362  
C85      C      0.988730000000     0.204800000000     0.488350000000    -0.0559869  
C86      C      0.913040000000     0.188400000000     0.464770000000     0.0382827  
C87      C      0.914460000000     0.207900000000     0.544570000000    -0.000133954
C88      C      0.012560000000     0.169110000000     0.537730000000    -0.0559358  
C89      C      0.707580000000     0.737860000000     0.860860000000    -0.0311551  
C90      C      0.763940000000     0.811290000000     0.707250000000    -0.0308695  
C91      C      0.815620000000     0.813140000000     0.703280000000    -0.00566975 
C92      C      0.776290000000     0.830550000000     0.678540000000    -0.00550517 
C93      C      0.759090000000     0.765700000000     0.764270000000    -0.0557184  
C94      C      0.751770000000     0.780980000000     0.854700000000    -0.0533021  
C95      C      0.767050000000     0.788430000000     0.777840000000     0.0619505  
C96      C      0.802030000000     0.794400000000     0.731080000000    -0.0306082  
C97      C      0.743800000000     0.758380000000     0.841370000000     0.0612306  
C98      C      0.745070000000     0.721430000000     0.884360000000    -0.0413585  
C99      C      0.747540000000     0.750820000000     0.795720000000    -0.0553569  
C100     C      0.734210000000     0.707880000000     0.925730000000     0.0343639  
C101     C      0.694120000000     0.727580000000     0.901750000000    -0.00368775 
C102     C      0.763290000000     0.795880000000     0.823200000000    -0.0538916  
C103     C      0.716690000000     0.703480000000     0.225720000000    -0.0311592  
C104     C      0.754960000000     0.796540000000     0.387420000000    -0.0308166  
C105     C      0.781750000000     0.768800000000     0.455070000000    -0.00534169 
C106     C      0.759680000000     0.806870000000     0.435280000000    -0.00545143 
C107     C      0.724040000000     0.747190000000     0.347880000000    -0.0537717  
C108     C      0.749480000000     0.751900000000     0.265800000000    -0.0530079  
C109     C      0.745450000000     0.759860000000     0.347760000000     0.0619373  
C110     C      0.776200000000     0.759970000000     0.406400000000    -0.0308509  
C111     C      0.727970000000     0.739340000000     0.265840000000     0.0609576  
C112     C      0.696680000000     0.740330000000     0.208890000000    -0.0413152  
C113     C      0.715320000000     0.736980000000     0.307410000000    -0.0555677  
C114     C      0.689530000000     0.732390000000     0.159830000000     0.0339157  
C115     C      0.712780000000     0.693480000000     0.177580000000    -0.00429655 
C116     C      0.758230000000     0.762070000000     0.306360000000    -0.0560454  
C117     C      0.796160000000     0.214550000000     0.725850000000    -0.0311865  
C118     C      0.700450000000     0.265920000000     0.864770000000    -0.0308338  
C119     C      0.728160000000     0.288390000000     0.937870000000    -0.00468355 
C120     C      0.688510000000     0.271490000000     0.910710000000    -0.00476916 
C121     C      0.745760000000     0.227740000000     0.834260000000    -0.0537194  
C122     C      0.750800000000     0.254210000000     0.753070000000    -0.0528303  
C123     C      0.737050000000     0.251100000000     0.832240000000     0.061939   
C124     C      0.738190000000     0.281900000000     0.890650000000    -0.0308334  
C125     C      0.759670000000     0.230890000000     0.755190000000     0.0609822  
C126     C      0.758880000000     0.200710000000     0.695990000000    -0.0416988  
C127     C      0.756940000000     0.217640000000     0.796180000000    -0.0554729  
C128     C      0.769700000000     0.193310000000     0.649260000000     0.0354006  
C129     C      0.809520000000     0.210200000000     0.681180000000    -0.00387717 
C130     C      0.739540000000     0.264300000000     0.791170000000    -0.0560812  
C131     C      0.703180000000     0.271710000000     0.205560000000    -0.0315098  
C132     C      0.776980000000     0.217170000000     0.356010000000    -0.0307293  
C133     C      0.806940000000     0.242570000000     0.421760000000    -0.00483    
C134     C      0.796410000000     0.203580000000     0.381840000000    -0.00473117 
C135     C      0.745140000000     0.259590000000     0.327900000000    -0.0557653  
C136     C      0.762810000000     0.270650000000     0.240480000000    -0.0531923  
C137     C      0.768950000000     0.254350000000     0.317220000000     0.0620594  
C138     C      0.787190000000     0.254420000000     0.393370000000    -0.0309877  
C139     C      0.739080000000     0.275720000000     0.250780000000     0.0613488  
C140     C      0.717080000000     0.310590000000     0.226650000000    -0.0416597  
C141     C      0.730380000000     0.270370000000     0.295090000000    -0.0554161  
C142     C      0.705710000000     0.322780000000     0.184120000000     0.0361608  
C143     C      0.691750000000     0.280060000000     0.160590000000    -0.00228699 
C144     C      0.777620000000     0.260080000000     0.273410000000    -0.0538285  
C145     C      0.663770000000     0.443460000000     0.040720000000    -0.0311126  
C146     C      0.696920000000     0.566920000000     0.988960000000    -0.0306962  
C147     C      0.664250000000     0.588660000000     0.054610000000    -0.00415499 
C148     C      0.689870000000     0.593060000000     0.982090000000    -0.00445623 
C149     C      0.663220000000     0.514690000000     0.986710000000    -0.0536169  
C150     C      0.700630000000     0.492000000000     0.032870000000    -0.0529532  
C151     C      0.680300000000     0.528420000000     0.009550000000     0.0620323  
C152     C      0.672890000000     0.562870000000     0.057290000000    -0.0308208  
C153     C      0.683270000000     0.478230000000     0.010740000000     0.0609525  
C154     C      0.685920000000     0.440630000000     0.970250000000    -0.0414386  
C155     C      0.664590000000     0.489840000000     0.987230000000    -0.0554301  
C156     C      0.690070000000     0.413500000000     0.976280000000     0.0339438  
C157     C      0.667890000000     0.417460000000     0.053320000000    -0.00471517 
C158     C      0.699230000000     0.516910000000     0.032370000000    -0.0561544  
C159     C      0.271280000000     0.696590000000     0.798940000000    -0.0312837  
C160     C      0.239580000000     0.781130000000     0.615070000000    -0.0308779  
C161     C      0.194640000000     0.759930000000     0.586080000000    -0.00523802 
C162     C      0.229530000000     0.787050000000     0.567350000000    -0.00499338 
C163     C      0.259190000000     0.728690000000     0.665970000000    -0.0537649  
C164     C      0.253110000000     0.750580000000     0.751510000000    -0.0529754  
C165     C      0.244400000000     0.748640000000     0.669460000000     0.0621352  
C166     C      0.206250000000     0.755260000000     0.632910000000    -0.0306291  
C167     C      0.267710000000     0.730430000000     0.748130000000     0.0610927  
C168     C      0.304810000000     0.722290000000     0.787150000000    -0.0414785  
C169     C      0.270800000000     0.719620000000     0.704830000000    -0.0555231  
C170     C      0.316050000000     0.715960000000     0.834310000000     0.0342864  
C171     C      0.278630000000     0.689680000000     0.847670000000    -0.00362333 
C172     C      0.241540000000     0.759690000000     0.712560000000    -0.0561312  
C173     C      0.202060000000     0.799710000000     0.278060000000    -0.031367   
C174     C      0.256790000000     0.706940000000     0.135770000000    -0.0309224  
C175     C      0.286950000000     0.734360000000     0.073510000000    -0.00496294 
C176     C      0.264250000000     0.695940000000     0.089980000000    -0.00466217 
C177     C      0.221400000000     0.754480000000     0.163600000000    -0.0537265  
C178     C      0.242270000000     0.754000000000     0.251150000000    -0.0529215  
C179     C      0.243700000000     0.743880000000     0.169790000000     0.0620316  
C180     C      0.278240000000     0.743540000000     0.120030000000    -0.0308092  
C181     C      0.219940000000     0.764580000000     0.244980000000     0.0611474  
C182     C      0.186480000000     0.761020000000     0.296100000000    -0.0418169  
C183     C      0.209530000000     0.764700000000     0.200770000000    -0.0556399  
C184     C      0.176710000000     0.768950000000     0.343270000000     0.0363913  
C185     C      0.195040000000     0.810570000000     0.324110000000    -0.0031871  
C186     C      0.254100000000     0.743660000000     0.213970000000    -0.0561479  
C187     C      0.560870000000     0.684120000000     0.058390000000    -0.0309256  
C188     C      0.440420000000     0.675350000000     0.963460000000    -0.0308187  
C189     C      0.409990000000     0.684470000000     0.042740000000    -0.00436197 
C190     C      0.414970000000     0.665980000000     0.962710000000    -0.00418848 
C191     C      0.488730000000     0.660690000000     0.030890000000    -0.0537575  
C192     C      0.510290000000     0.702210000000     0.997600000000    -0.0529296  
C193     C      0.474600000000     0.679160000000     0.013410000000     0.062025   
C194     C      0.435850000000     0.692690000000     0.039000000000    -0.030903   
C195     C      0.524470000000     0.683550000000     0.014440000000     0.0608811  
C196     C      0.560550000000     0.668200000000     0.981490000000    -0.0414545  
C197     C      0.513420000000     0.662780000000     0.031510000000    -0.0555043  
C198     C      0.587360000000     0.672830000000     0.974660000000     0.0340798  
C199     C      0.586940000000     0.691200000000     0.055700000000    -0.00541321 
C200     C      0.485530000000     0.700110000000     0.997070000000    -0.0561296  
C201     C      0.257980000000     0.290650000000     0.844710000000    -0.0312207  
C202     C      0.214940000000     0.236620000000     0.646450000000    -0.0309494  
C203     C      0.229670000000     0.187830000000     0.626840000000    -0.00468654 
C204     C      0.209550000000     0.225900000000     0.599170000000    -0.00465195 
C205     C      0.231860000000     0.238330000000     0.747100000000    -0.0558349  
C206     C      0.275920000000     0.261310000000     0.743860000000    -0.0532869  
C207     C      0.245050000000     0.238250000000     0.706000000000     0.0619699  
C208     C      0.234160000000     0.200260000000     0.672790000000    -0.0308911  
C209     C      0.263010000000     0.261190000000     0.784980000000     0.0613387  
C210     C      0.279290000000     0.254510000000     0.860760000000    -0.0414795  
C211     C      0.240810000000     0.249600000000     0.786310000000    -0.0553935  
C212     C      0.294360000000     0.265920000000     0.899370000000     0.035799   
C213     C      0.272010000000     0.305380000000     0.879430000000    -0.00339502 
C214     C      0.267010000000     0.249930000000     0.704710000000    -0.0538395  
C215     C      0.287410000000     0.258100000000     0.169120000000    -0.0308302  
C216     C      0.196660000000     0.214200000000     0.328980000000    -0.030793   
C217     C      0.221570000000     0.174530000000     0.372880000000    -0.0051405  
C218     C      0.182530000000     0.194660000000     0.353480000000    -0.00516401 
C219     C      0.233340000000     0.215150000000     0.234250000000    -0.0537966  
C220     C      0.252060000000     0.258020000000     0.267330000000    -0.053179   
C221     C      0.231000000000     0.220770000000     0.280910000000     0.0621011  
C222     C      0.234220000000     0.194810000000     0.347560000000    -0.030816   
C223     C      0.254460000000     0.252370000000     0.220640000000     0.0611512  
C224     C      0.250550000000     0.278780000000     0.155300000000    -0.0414013  
C225     C      0.244920000000     0.230750000000     0.204240000000    -0.0555926  
C226     C      0.262800000000     0.298890000000     0.127680000000     0.0335994  
C227     C      0.302050000000     0.277310000000     0.145330000000    -0.00552806 
C228     C      0.240410000000     0.242410000000     0.297350000000    -0.0561209  
C229     C      0.433330000000     0.322540000000     0.049520000000    -0.0306763  
C230     C      0.557940000000     0.325740000000     0.975840000000    -0.0309276  
C231     C      0.581850000000     0.323310000000     0.065220000000    -0.00447216 
C232     C      0.583340000000     0.335200000000     0.979910000000    -0.0041171  
C233     C      0.505250000000     0.344930000000     0.022690000000    -0.0538257  
C234     C      0.485800000000     0.300270000000     0.002520000000    -0.0531497  
C235     C      0.520330000000     0.325450000000     0.015870000000     0.0621155  
C236     C      0.556540000000     0.314590000000     0.056300000000    -0.0308081  
C237     C      0.470680000000     0.319740000000     0.009690000000     0.0610613  
C238     C      0.434960000000     0.329560000000     0.967660000000    -0.041205   
C239     C      0.480660000000     0.342210000000     0.019540000000    -0.0555016  
C240     C      0.408500000000     0.323120000000     0.960790000000     0.0332323  
C241     C      0.407550000000     0.314430000000     0.047610000000    -0.00614255 
C242     C      0.510450000000     0.303030000000     0.005440000000    -0.0562279  
C243     C      0.331150000000     0.563250000000     0.044400000000    -0.031052   
C244     C      0.316540000000     0.438420000000     0.975490000000    -0.030809   
C245     C      0.323190000000     0.411150000000     0.060500000000    -0.00447891 
C246     C      0.324500000000     0.412460000000     0.972160000000    -0.00435001 
C247     C      0.344370000000     0.488220000000     0.017610000000    -0.0538443  
C248     C      0.300130000000     0.510850000000     0.015500000000    -0.0529473  
C249     C      0.323650000000     0.474480000000     0.018600000000     0.0621844  
C250     C      0.315390000000     0.437280000000     0.058650000000    -0.0308897  
C251     C      0.320880000000     0.524610000000     0.013700000000     0.0609341  
C252     C      0.327770000000     0.557670000000     0.962560000000    -0.0411715  
C253     C      0.343100000000     0.513040000000     0.015120000000    -0.0554939  
C254     C      0.322340000000     0.584250000000     0.953380000000     0.0335038  
C255     C      0.324620000000     0.589590000000     0.041600000000    -0.00513675 
C256     C      0.301420000000     0.485960000000     0.017930000000    -0.0562726  
H1       H      0.142880000000     0.015630000000     0.504380000000     0.0416492  
H2       H      0.192550000000     0.941820000000     0.471770000000     0.0363607  
H3       H      0.152100000000     0.932950000000     0.592770000000     0.0399379  
H4       H      0.210910000000     0.075090000000     0.518130000000     0.0390682  
H5       H      0.171270000000     0.906950000000     0.454130000000     0.0422439  
H6       H      0.157490000000     0.044420000000     0.603460000000     0.0358817  
H7       H      0.197770000000     0.039060000000     0.480850000000     0.0361303  
H8       H      0.153150000000     0.088740000000     0.590710000000     0.0433257  
H9       H      0.138920000000     0.972140000000     0.498040000000     0.0459117  
H10      H      0.200060000000     0.896970000000     0.471400000000     0.0441106  
H11      H      0.207620000000     0.006530000000     0.582180000000     0.0456494  
H12      H      0.205640000000     0.929400000000     0.523180000000     0.037305   
H13      H      0.193970000000     0.083120000000     0.467960000000     0.0456739  
H14      H      0.141310000000     0.897360000000     0.557430000000     0.0348354  
H15      H      0.143960000000     0.052280000000     0.549100000000     0.0379695  
H16      H      0.167430000000     0.049290000000     0.477810000000     0.0385603  
H17      H      0.203700000000     0.963140000000     0.575920000000     0.0411037  
H18      H      0.183400000000     0.927070000000     0.592310000000     0.0404491  
H19      H      0.182950000000     0.079040000000     0.602460000000     0.0393991  
H20      H      0.013850000000     0.840490000000     0.513420000000     0.0419057  
H21      H      0.934620000000     0.826580000000     0.420930000000     0.03612    
H22      H      0.941520000000     0.786450000000     0.543570000000     0.0405021  
H23      H      0.077380000000     0.808980000000     0.404670000000     0.0393269  
H24      H      0.899540000000     0.838990000000     0.453730000000     0.0428071  
H25      H      0.043100000000     0.788310000000     0.530850000000     0.036564   
H26      H      0.040820000000     0.830950000000     0.410100000000     0.035956   
H27      H      0.086890000000     0.796530000000     0.538970000000     0.046541   
H28      H      0.970410000000     0.841030000000     0.520950000000     0.0464988  
H29      H      0.889430000000     0.813690000000     0.422420000000     0.0380358  
H30      H      0.009060000000     0.777130000000     0.430310000000     0.0458066  
H31      H      0.927000000000     0.795480000000     0.422710000000     0.0358295  
H32      H      0.084730000000     0.839260000000     0.418320000000     0.0432988  
H33      H      0.904470000000     0.799950000000     0.561080000000     0.039672   
H34      H      0.050540000000     0.819540000000     0.533980000000     0.0387386  
H35      H      0.049170000000     0.844160000000     0.464310000000     0.0381195  
H36      H      0.965680000000     0.777730000000     0.437530000000     0.0410881  
H37      H      0.933320000000     0.772730000000     0.490330000000     0.0399871  
H38      H      0.078900000000     0.778730000000     0.490140000000     0.0399791  
H39      H      0.807990000000     0.978240000000     0.575230000000     0.0418168  
H40      H      0.857330000000     0.058910000000     0.590400000000     0.0359217  
H41      H      0.807480000000     0.054920000000     0.481650000000     0.0401385  
H42      H      0.871470000000     0.916190000000     0.544330000000     0.0382449  
H43      H      0.833260000000     0.093700000000     0.599730000000     0.0383141  
H44      H      0.818060000000     0.953570000000     0.468020000000     0.0362319  
H45      H      0.860920000000     0.950990000000     0.588310000000     0.0359332  
H46      H      0.811860000000     0.909240000000     0.472590000000     0.0459507  
H47      H      0.803710000000     0.021740000000     0.581070000000     0.0458485  
H48      H      0.861400000000     0.102930000000     0.577610000000     0.0445641  
H49      H      0.868630000000     0.987630000000     0.486840000000     0.0455448  
H50      H      0.865850000000     0.067240000000     0.532780000000     0.0378272  
H51      H      0.854820000000     0.906600000000     0.593600000000     0.0440085  
H52      H      0.797550000000     0.092080000000     0.515790000000     0.0353237  
H53      H      0.805270000000     0.943690000000     0.521670000000     0.0387915  
H54      H      0.830170000000     0.942180000000     0.591560000000     0.03824    
H55      H      0.864240000000     0.030980000000     0.492150000000     0.0412028  
H56      H      0.837780000000     0.063240000000     0.470460000000     0.0414551  
H57      H      0.841910000000     0.918050000000     0.461070000000     0.0392285  
H58      H      0.021520000000     0.155060000000     0.556630000000     0.0415346  
H59      H      0.950260000000     0.217010000000     0.563920000000     0.0366268  
H60      H      0.940090000000     0.161010000000     0.470810000000     0.0431236  
H61      H      0.092850000000     0.208830000000     0.530530000000     0.0398003  
H62      H      0.913190000000     0.198270000000     0.578060000000     0.0458133  
H63      H      0.048860000000     0.160680000000     0.451280000000     0.0359142  
H64      H      0.056330000000     0.202860000000     0.571210000000     0.0361114  
H65      H      0.091690000000     0.147930000000     0.458490000000     0.0436173  
H66      H      0.977940000000     0.157450000000     0.559120000000     0.0461791  
H67      H      0.905950000000     0.225600000000     0.549380000000     0.0388145  
H68      H      0.023270000000     0.216320000000     0.466570000000     0.0458481  
H69      H      0.942410000000     0.225640000000     0.506020000000     0.039616   
H70      H      0.099210000000     0.189630000000     0.578480000000     0.0437592  
H71      H      0.903730000000     0.173280000000     0.447810000000     0.0386634  
H72      H      0.056280000000     0.146820000000     0.505590000000     0.0378367  
H73      H      0.060490000000     0.171030000000     0.574520000000     0.0377174  
H74      H      0.979750000000     0.218520000000     0.468590000000     0.0425377  
H75      H      0.950460000000     0.186600000000     0.441280000000     0.0398168  
H76      H      0.087290000000     0.178720000000     0.443940000000     0.0406232  
H77      H      0.769350000000     0.813300000000     0.834140000000     0.046018   
H78      H      0.698180000000     0.754270000000     0.849070000000     0.0363151  
H79      H      0.763910000000     0.725730000000     0.892820000000     0.0400808  
H80      H      0.820730000000     0.827920000000     0.726740000000     0.0383893  
H81      H      0.688920000000     0.742500000000     0.924750000000     0.0414608  
H82      H      0.746830000000     0.818630000000     0.720000000000     0.0360186  
H83      H      0.813040000000     0.789230000000     0.761430000000     0.0365295  
H84      H      0.765200000000     0.834600000000     0.647730000000     0.0442747  
H85      H      0.749030000000     0.787040000000     0.889640000000     0.0465951  
H86      H      0.677330000000     0.719430000000     0.889010000000     0.0440232  
H87      H      0.761800000000     0.759470000000     0.729460000000     0.0414566  
H88      H      0.707230000000     0.724830000000     0.831980000000     0.0372958  
H89      H      0.832210000000     0.804990000000     0.689900000000     0.047479   
H90      H      0.742000000000     0.715460000000     0.957750000000     0.035316   
H91      H      0.759960000000     0.795740000000     0.684790000000     0.0386824  
H92      H      0.799320000000     0.778300000000     0.709370000000     0.0394711  
H93      H      0.741540000000     0.733470000000     0.784400000000     0.0409232  
H94      H      0.745290000000     0.710070000000     0.852840000000     0.0405817  
H95      H      0.777550000000     0.847060000000     0.699490000000     0.0374774  
H96      H      0.774860000000     0.771730000000     0.305380000000     0.0419398  
H97      H      0.733100000000     0.695270000000     0.240290000000     0.0361205  
H98      H      0.698450000000     0.760130000000     0.208930000000     0.0400358  
H99      H      0.768530000000     0.761020000000     0.479170000000     0.037481   
H100     H      0.729980000000     0.693850000000     0.158860000000     0.039975   
H101     H      0.737850000000     0.803900000000     0.374360000000     0.0363001  
H102     H      0.774870000000     0.740180000000     0.407380000000     0.0359955  
H103     H      0.762290000000     0.826460000000     0.432000000000     0.0465295  
H104     H      0.759410000000     0.753870000000     0.234160000000     0.0459776  
H105     H      0.707580000000     0.674410000000     0.180890000000     0.0440534  
H106     H      0.714050000000     0.745310000000     0.379480000000     0.04544    
H107     H      0.701540000000     0.698240000000     0.248130000000     0.0376211  
H108     H      0.799590000000     0.762140000000     0.465460000000     0.044556   
H109     H      0.699650000000     0.743460000000     0.134830000000     0.0344943  
H110     H      0.769350000000     0.802320000000     0.363670000000     0.0391593  
H111     H      0.791070000000     0.764930000000     0.383070000000     0.0388495  
H112     H      0.698680000000     0.727360000000     0.308570000000     0.0411815  
H113     H      0.682540000000     0.735650000000     0.234260000000     0.0409755  
H114     H      0.743720000000     0.803850000000     0.456950000000     0.0382294  
H115     H      0.732860000000     0.282350000000     0.788670000000     0.0421189  
H116     H      0.805300000000     0.229170000000     0.744780000000     0.0364659  
H117     H      0.739880000000     0.205460000000     0.690200000000     0.0401693  
H118     H      0.733790000000     0.274570000000     0.963210000000     0.0380741  
H119     H      0.814160000000     0.227770000000     0.665700000000     0.0422168  
H120     H      0.691490000000     0.250130000000     0.849410000000     0.0360919  
H121     H      0.757480000000     0.278040000000     0.894700000000     0.0362647  
H122     H      0.669990000000     0.277460000000     0.903790000000     0.0451025  
H123     H      0.752710000000     0.264610000000     0.721800000000     0.0461519  
H124     H      0.826610000000     0.201170000000     0.689470000000     0.043676   
H125     H      0.743900000000     0.217370000000     0.865570000000     0.0456287  
H126     H      0.797050000000     0.198200000000     0.747720000000     0.0369569  
H127     H      0.736050000000     0.305630000000     0.948950000000     0.0453261  
H128     H      0.761660000000     0.204800000000     0.622070000000     0.0353908  
H129     H      0.698050000000     0.281300000000     0.840800000000     0.0388825  
H130     H      0.736230000000     0.297440000000     0.866950000000     0.0390811  
H131     H      0.763560000000     0.199570000000     0.798840000000     0.041091   
H132     H      0.759190000000     0.185580000000     0.721120000000     0.0406246  
H133     H      0.687520000000     0.254800000000     0.931410000000     0.0385429  
H134     H      0.795830000000     0.255990000000     0.264610000000     0.0464655  
H135     H      0.708140000000     0.252590000000     0.201870000000     0.0362462  
H136     H      0.732920000000     0.321190000000     0.237190000000     0.0401799  
H137     H      0.824310000000     0.246730000000     0.405510000000     0.0390121  
H138     H      0.700720000000     0.270810000000     0.131590000000     0.041301   
H139     H      0.774060000000     0.208310000000     0.322210000000     0.0365527  
H140     H      0.792070000000     0.273400000000     0.387380000000     0.0362125  
H141     H      0.789710000000     0.185410000000     0.390110000000     0.0475337  
H142     H      0.769760000000     0.274730000000     0.206640000000     0.0468754  
H143     H      0.672890000000     0.274180000000     0.159700000000     0.0411981  
H144     H      0.737920000000     0.255080000000     0.361290000000     0.0414365  
H145     H      0.689910000000     0.272930000000     0.233830000000     0.0362266  
H146     H      0.807110000000     0.250470000000     0.456840000000     0.0434747  
H147     H      0.720250000000     0.331450000000     0.164320000000     0.0373991  
H148     H      0.760110000000     0.216200000000     0.375860000000     0.0392549  
H149     H      0.770400000000     0.253980000000     0.413470000000     0.0380741  
H150     H      0.712160000000     0.274230000000     0.304080000000     0.0408704  
H151     H      0.704770000000     0.310350000000     0.256740000000     0.0404428  
H152     H      0.811970000000     0.201520000000     0.358710000000     0.040336   
H153     H      0.712600000000     0.527150000000     0.050440000000     0.0418988  
H154     H      0.661420000000     0.453660000000     0.073220000000     0.036214   
H155     H      0.701070000000     0.448270000000     0.950510000000     0.0403351  
H156     H      0.645650000000     0.588780000000     0.041600000000     0.0389361  
H157     H      0.681980000000     0.416500000000     0.080240000000     0.0415631  
H158     H      0.700990000000     0.559150000000     0.954670000000     0.0362901  
H159     H      0.658930000000     0.552020000000     0.074530000000     0.0359228  
H160     H      0.705850000000     0.603370000000     0.971630000000     0.0443751  
H161     H      0.715020000000     0.483360000000     0.051320000000     0.0459933  
H162     H      0.651290000000     0.410490000000     0.069080000000     0.045222   
H163     H      0.648510000000     0.523320000000     0.969200000000     0.0457744  
H164     H      0.647060000000     0.445030000000     0.020260000000     0.0378875  
H165     H      0.663980000000     0.596180000000     0.090010000000     0.0440327  
H166     H      0.709050000000     0.410740000000     0.985580000000     0.034666   
H167     H      0.713320000000     0.565930000000     0.010480000000     0.0379124  
H168     H      0.689300000000     0.561950000000     0.078800000000     0.0381324  
H169     H      0.650780000000     0.479730000000     0.970180000000     0.041147   
H170     H      0.669430000000     0.443990000000     0.949750000000     0.0410546  
H171     H      0.676900000000     0.594210000000     0.953190000000     0.0398699  
H172     H      0.230230000000     0.775170000000     0.716120000000     0.0419945  
H173     H      0.251610000000     0.695030000000     0.796280000000     0.0363187  
H174     H      0.310410000000     0.740710000000     0.777600000000     0.0400405  
H175     H      0.198680000000     0.744710000000     0.562970000000     0.039184   
H176     H      0.266160000000     0.698210000000     0.872270000000     0.0395491  
H177     H      0.259300000000     0.782230000000     0.613440000000     0.0360131  
H178     H      0.201100000000     0.737070000000     0.644650000000     0.03641    
H179     H      0.233480000000     0.806040000000     0.559300000000     0.0439281  
H180     H      0.250580000000     0.759100000000     0.784520000000     0.0459338  
H181     H      0.276410000000     0.670070000000     0.851800000000     0.0451831  
H182     H      0.261560000000     0.720040000000     0.633030000000     0.0457427  
H183     H      0.279230000000     0.683770000000     0.774140000000     0.0378482  
H184     H      0.175060000000     0.760570000000     0.590650000000     0.0469111  
H185     H      0.315820000000     0.732310000000     0.855880000000     0.0353292  
H186     H      0.233250000000     0.794620000000     0.640260000000     0.0386157  
H187     H      0.199380000000     0.768370000000     0.658310000000     0.0389923  
H188     H      0.281970000000     0.704050000000     0.701130000000     0.0413475  
H189     H      0.311390000000     0.710160000000     0.759580000000     0.0409739  
H190     H      0.238780000000     0.775910000000     0.541410000000     0.0382685  
H191     H      0.271220000000     0.735390000000     0.219730000000     0.0419447  
H192     H      0.217680000000     0.809680000000     0.264570000000     0.0364472  
H193     H      0.190660000000     0.741610000000     0.298170000000     0.0400988  
H194     H      0.275820000000     0.742390000000     0.045810000000     0.0377704  
H195     H      0.211540000000     0.815460000000     0.343080000000     0.0423393  
H196     H      0.239260000000     0.699310000000     0.145610000000     0.0360568  
H197     H      0.276740000000     0.763300000000     0.118000000000     0.0361333  
H198     H      0.267670000000     0.676600000000     0.095490000000     0.0447842  
H199     H      0.250420000000     0.753610000000     0.284980000000     0.0461926  
H200     H      0.185300000000     0.827520000000     0.317690000000     0.0426403  
H201     H      0.213130000000     0.754630000000     0.129870000000     0.0455379  
H202     H      0.187210000000     0.802090000000     0.253000000000     0.0365553  
H203     H      0.305500000000     0.740570000000     0.068170000000     0.0448454  
H204     H      0.185940000000     0.758260000000     0.370290000000     0.0362666  
H205     H      0.269930000000     0.702010000000     0.162950000000     0.0387589  
H206     H      0.291600000000     0.739030000000     0.147080000000     0.0385185  
H207     H      0.192210000000     0.772540000000     0.195030000000     0.0411112  
H208     H      0.172950000000     0.763260000000     0.268170000000     0.0406562  
H209     H      0.249240000000     0.697550000000     0.065160000000     0.0381751  
H210     H      0.474970000000     0.714620000000     0.983320000000     0.0420149  
H211     H      0.551830000000     0.696440000000     0.082660000000     0.036224   
H212     H      0.551590000000     0.669220000000     0.947230000000     0.0402695  
H213     H      0.409190000000     0.668820000000     0.066320000000     0.0391022  
H214     H      0.588040000000     0.710730000000     0.049230000000     0.0403876  
H215     H      0.451530000000     0.663380000000     0.941920000000     0.0361927  
H216     H      0.443510000000     0.693690000000     0.074330000000     0.036002   
H217     H      0.407550000000     0.668570000000     0.927480000000     0.0454903  
H218     H      0.518490000000     0.718270000000     0.984310000000     0.0459628  
H219     H      0.595150000000     0.687800000000     0.090010000000     0.0459146  
H220     H      0.480540000000     0.644460000000     0.043470000000     0.0455348  
H221     H      0.559530000000     0.665700000000     0.072630000000     0.0379973  
H222     H      0.399350000000     0.698960000000     0.058680000000     0.0435778  
H223     H      0.589310000000     0.688340000000     0.951010000000     0.0351353  
H224     H      0.440900000000     0.693530000000     0.947870000000     0.0386242  
H225     H      0.436430000000     0.710900000000     0.023560000000     0.0381206  
H226     H      0.523860000000     0.648050000000     0.044710000000     0.0410684  
H227     H      0.557580000000     0.649850000000     0.995420000000     0.0413187  
H228     H      0.415290000000     0.646460000000     0.969610000000     0.0385878  
H229     H      0.277350000000     0.250000000000     0.673340000000     0.046143   
H230     H      0.251410000000     0.302810000000     0.817070000000     0.0364469  
H231     H      0.289790000000     0.239730000000     0.845300000000     0.0403396  
H232     H      0.246230000000     0.188580000000     0.606120000000     0.0376884  
H233     H      0.282860000000     0.318680000000     0.860250000000     0.0428157  
H234     H      0.217100000000     0.256240000000     0.642260000000     0.0359931  
H235     H      0.250660000000     0.192750000000     0.688320000000     0.0361007  
H236     H      0.191920000000     0.232470000000     0.587290000000     0.0444279  
H237     H      0.293050000000     0.270030000000     0.742360000000     0.0470874  
H238     H      0.259340000000     0.315750000000     0.900790000000     0.0428758  
H239     H      0.214830000000     0.229450000000     0.748980000000     0.0412995  
H240     H      0.242210000000     0.282740000000     0.862070000000     0.0365378  
H241     H      0.225660000000     0.168720000000     0.633650000000     0.0445264  
H242     H      0.313250000000     0.265540000000     0.888270000000     0.0380441  
H243     H      0.199620000000     0.233350000000     0.669780000000     0.0387319  
H244     H      0.219130000000     0.196380000000     0.696490000000     0.0385622  
H245     H      0.230520000000     0.249070000000     0.817700000000     0.04069    
H246     H      0.262640000000     0.246420000000     0.874680000000     0.0404882  
H247     H      0.223060000000     0.232400000000     0.574270000000     0.0375152  
H248     H      0.238740000000     0.247210000000     0.333250000000     0.0417776  
H249     H      0.298770000000     0.249370000000     0.195760000000     0.0362691  
H250     H      0.234450000000     0.286270000000     0.172160000000     0.0401774  
H251     H      0.219870000000     0.159140000000     0.349080000000     0.0389001  
H252     H      0.310410000000     0.288730000000     0.172110000000     0.0399114  
H253     H      0.185550000000     0.221490000000     0.300420000000     0.0359886  
H254     H      0.250980000000     0.187710000000     0.332740000000     0.0360733  
H255     H      0.166660000000     0.202820000000     0.369730000000     0.0450851  
H256     H      0.259230000000     0.274590000000     0.280420000000     0.0458366  
H257     H      0.316700000000     0.268340000000     0.126490000000     0.0470066  
H258     H      0.226120000000     0.198600000000     0.221140000000     0.0455616  
H259     H      0.282230000000     0.244350000000     0.143390000000     0.0384936  
H260     H      0.232740000000     0.168780000000     0.402560000000     0.0451618  
H261     H      0.263550000000     0.315000000000     0.149830000000     0.0347844  
H262     H      0.200410000000     0.228900000000     0.353660000000     0.0387324  
H263     H      0.238880000000     0.209040000000     0.372680000000     0.0383924  
H264     H      0.246410000000     0.225930000000     0.168330000000     0.0413456  
H265     H      0.244540000000     0.264270000000     0.131740000000     0.0414967  
H266     H      0.176200000000     0.181670000000     0.327340000000     0.0384779  
H267     H      0.521770000000     0.287740000000     0.999730000000     0.0419475  
H268     H      0.442110000000     0.313480000000     0.079230000000     0.0361633  
H269     H      0.444740000000     0.325100000000     0.935500000000     0.040207   
H270     H      0.581010000000     0.340660000000     0.083540000000     0.0394111  
H271     H      0.407100000000     0.294620000000     0.048990000000     0.040107   
H272     H      0.548740000000     0.335800000000     0.947860000000     0.035989   
H273     H      0.546270000000     0.316260000000     0.088810000000     0.0361424  
H274     H      0.593370000000     0.329940000000     0.948620000000     0.0443383  
H275     H      0.478420000000     0.282920000000     0.994660000000     0.0459753  
H276     H      0.398550000000     0.321010000000     0.079150000000     0.0463069  
H277     H      0.512620000000     0.362290000000     0.030510000000     0.0456203  
H278     H      0.433850000000     0.342120000000     0.055750000000     0.0377887  
H279     H      0.590900000000     0.310410000000     0.088600000000     0.04464    
H280     H      0.407590000000     0.305070000000     0.945200000000     0.0350049  
H281     H      0.558360000000     0.306570000000     0.966020000000     0.0383793  
H282     H      0.556980000000     0.295390000000     0.046630000000     0.0380357  
H283     H      0.469480000000     0.357640000000     0.024920000000     0.0410251  
H284     H      0.437000000000     0.349130000000     0.973550000000     0.041218   
H285     H      0.582770000000     0.355020000000     0.980590000000     0.0389966  
H286     H      0.285150000000     0.475700000000     0.018420000000     0.0420195  
H287     H      0.325690000000     0.556340000000     0.078770000000     0.0360494  
H288     H      0.319040000000     0.546920000000     0.935060000000     0.0402424  
H289     H      0.342150000000     0.410380000000     0.071220000000     0.0387281  
H290     H      0.306010000000     0.591780000000     0.053590000000     0.0408148  
H291     H      0.323480000000     0.448220000000     0.944960000000     0.0362349  
H292     H      0.321550000000     0.446210000000     0.090720000000     0.0360488  
H293     H      0.314920000000     0.403920000000     0.942980000000     0.0453707  
H294     H      0.282920000000     0.519440000000     0.014120000000     0.0460105  
H295     H      0.336140000000     0.599490000000     0.066180000000     0.0441717  
H296     H      0.361580000000     0.479600000000     0.017880000000     0.0455315  
H297     H      0.350790000000     0.561410000000     0.041700000000     0.0371711  
H298     H      0.312720000000     0.401760000000     0.087470000000     0.0442027  
H299     H      0.303290000000     0.585810000000     0.943660000000     0.0360883  
H300     H      0.296780000000     0.439300000000     0.974390000000     0.0384975  
H301     H      0.295640000000     0.438230000000     0.057570000000     0.0381432  
H302     H      0.359450000000     0.523130000000     0.013390000000     0.0409371  
H303     H      0.347280000000     0.554210000000     0.960460000000     0.0411191  
H304     H      0.343760000000     0.412040000000     0.963860000000     0.0389876  
In1      In     0.322890000000     0.326770000000     0.011090000000     2.42055    
In2      In     0.328280000000     0.672080000000     0.982850000000     2.41326    
In3      In     0.667350000000     0.330820000000     0.030100000000     2.40778    
In4      In     0.672080000000     0.675590000000     0.031320000000     2.4091     
In5      In     0.832010000000     0.178270000000     0.530160000000     2.40629    
In6      In     0.826320000000     0.832810000000     0.536910000000     2.40782    
In7      In     0.161360000000     0.820710000000     0.478940000000     2.40987    
In8      In     0.170750000000     0.160760000000     0.510650000000     2.40468    
N1       N      0.172100000000     0.889480000000     0.518880000000    -0.170124   
N2       N      0.168930000000     0.939010000000     0.528640000000    -0.111049   
N3       N      0.179750000000     0.039650000000     0.545170000000    -0.113224   
N4       N      0.177180000000     0.089440000000     0.533330000000    -0.168367   
N5       N      0.890960000000     0.808950000000     0.495110000000    -0.169572   
N6       N      0.939390000000     0.810070000000     0.486470000000    -0.110008   
N7       N      0.040130000000     0.807130000000     0.467270000000    -0.113043   
N8       N      0.089580000000     0.813740000000     0.472890000000    -0.168126   
N9       N      0.831940000000     0.105440000000     0.530470000000    -0.170382   
N10      N      0.829970000000     0.055110000000     0.540290000000    -0.111842   
N11      N      0.841700000000     0.954370000000     0.525390000000    -0.113303   
N12      N      0.836790000000     0.904450000000     0.528230000000    -0.16848    
N13      N      0.901540000000     0.194380000000     0.508960000000    -0.170752   
N14      N      0.950020000000     0.188590000000     0.515390000000    -0.10974    
N15      N      0.051120000000     0.184590000000     0.507900000000    -0.112948   
N16      N      0.099680000000     0.173120000000     0.511890000000    -0.167844   
N17      N      0.707860000000     0.709970000000     0.929070000000    -0.169702   
N18      N      0.731950000000     0.743520000000     0.874960000000    -0.111043   
N19      N      0.779160000000     0.804260000000     0.746410000000    -0.113493   
N20      N      0.800440000000     0.822820000000     0.666240000000    -0.168555   
N21      N      0.694970000000     0.706830000000     0.150110000000    -0.170569   
N22      N      0.719270000000     0.729460000000     0.223030000000    -0.111384   
N23      N      0.753650000000     0.770360000000     0.390260000000    -0.113438   
N24      N      0.780180000000     0.795020000000     0.457340000000    -0.168589   
N25      N      0.796000000000     0.196220000000     0.646780000000    -0.170772   
N26      N      0.771560000000     0.221230000000     0.715330000000    -0.111014   
N27      N      0.725750000000     0.260870000000     0.872540000000    -0.113149   
N28      N      0.701970000000     0.289430000000     0.937210000000    -0.168151   
N29      N      0.693060000000     0.306120000000     0.152620000000    -0.170523   
N30      N      0.724270000000     0.286200000000     0.215370000000    -0.110397   
N31      N      0.784420000000     0.242030000000     0.349110000000    -0.113026   
N32      N      0.804090000000     0.216420000000     0.423590000000    -0.167992   
N33      N      0.675320000000     0.402750000000     0.013680000000    -0.170947   
N34      N      0.684260000000     0.452550000000     0.015060000000    -0.111666   
N35      N      0.677250000000     0.553950000000     0.010640000000    -0.11295    
N36      N      0.678900000000     0.603480000000     0.023570000000    -0.168583   
N37      N      0.303140000000     0.696850000000     0.859920000000    -0.169765   
N38      N      0.278820000000     0.721130000000     0.789400000000    -0.111263   
N39      N      0.232200000000     0.756970000000     0.628680000000    -0.113272   
N40      N      0.203840000000     0.781990000000     0.564810000000    -0.168613   
N41      N      0.180650000000     0.794640000000     0.353700000000    -0.170381   
N42      N      0.207990000000     0.774450000000     0.284540000000    -0.110695   
N43      N      0.255010000000     0.732960000000     0.130670000000    -0.113222   
N44      N      0.285140000000     0.708150000000     0.070400000000    -0.168718   
N45      N      0.599910000000     0.678720000000     0.018650000000    -0.17045    
N46      N      0.550030000000     0.685880000000     0.012500000000    -0.111775   
N47      N      0.449250000000     0.675620000000     0.011080000000    -0.11306    
N48      N      0.399890000000     0.677500000000     0.997720000000    -0.168351   
N49      N      0.288020000000     0.291180000000     0.909390000000    -0.169929   
N50      N      0.273370000000     0.272200000000     0.825250000000    -0.110656   
N51      N      0.236840000000     0.226070000000     0.665250000000    -0.113234   
N52      N      0.210470000000     0.199610000000     0.600600000000    -0.169585   
N53      N      0.287670000000     0.292670000000     0.114430000000    -0.169861   
N54      N      0.266550000000     0.268990000000     0.190620000000    -0.111917   
N55      N      0.218820000000     0.204170000000     0.310640000000    -0.113477   
N56      N      0.197610000000     0.181990000000     0.387210000000    -0.168742   
N57      N      0.395160000000     0.322390000000     0.005200000000    -0.170429   
N58      N      0.445290000000     0.316230000000     0.006450000000    -0.111987   
N59      N      0.545610000000     0.329110000000     0.019770000000    -0.113044   
N60      N      0.595380000000     0.326710000000     0.022190000000    -0.168056   
N61      N      0.326480000000     0.599650000000     0.994540000000    -0.169875   
N62      N      0.318860000000     0.550150000000     0.007740000000    -0.111591   
N63      N      0.325880000000     0.448860000000     0.018140000000    -0.113078   
N64      N      0.320720000000     0.399140000000     0.015510000000    -0.167849   
O1       O      0.291070000000     0.322180000000     0.058550000000    -0.502484   
O2       O      0.320570000000     0.299210000000     0.068660000000    -0.500408   
O3       O      0.295240000000     0.324630000000     0.953550000000    -0.499003   
O4       O      0.320950000000     0.363340000000     0.976870000000    -0.502032   
O5       O      0.359490000000     0.323300000000     0.044440000000    -0.502176   
O6       O      0.320380000000     0.362020000000     0.050040000000    -0.503634   
O7       O      0.317140000000     0.294340000000     0.965420000000    -0.503514   
O8       O      0.357730000000     0.324160000000     0.971570000000    -0.50227    
O9       O      0.300960000000     0.672990000000     0.924800000000    -0.500802   
O10      O      0.330380000000     0.696530000000     0.919930000000    -0.498884   
O11      O      0.297720000000     0.673970000000     0.034040000000    -0.506267   
O12      O      0.330010000000     0.637590000000     0.025010000000    -0.501719   
O13      O      0.366080000000     0.668700000000     0.956340000000    -0.506027   
O14      O      0.323020000000     0.634950000000     0.953370000000    -0.496017   
O15      O      0.317000000000     0.705820000000     0.020920000000    -0.50533    
O16      O      0.361530000000     0.683020000000     0.023390000000    -0.501384   
O17      O      0.673260000000     0.301360000000     0.083440000000    -0.503848   
O18      O      0.687420000000     0.335640000000     0.097900000000    -0.501384   
O19      O      0.701040000000     0.318030000000     0.994100000000    -0.502614   
O20      O      0.632310000000     0.333210000000     0.990420000000    -0.500241   
O21      O      0.682500000000     0.363470000000     0.992530000000    -0.497685   
O22      O      0.631020000000     0.322400000000     0.060630000000    -0.501568   
O23      O      0.668060000000     0.303470000000     0.972130000000    -0.502701   
O24      O      0.661270000000     0.369310000000     0.051430000000    -0.506588   
O25      O      0.692310000000     0.675060000000     0.099740000000    -0.505219   
O26      O      0.675910000000     0.707480000000     0.079250000000    -0.503288   
O27      O      0.673720000000     0.700410000000     0.969020000000    -0.49996    
O28      O      0.686910000000     0.641690000000     0.998460000000    -0.500417   
O29      O      0.635040000000     0.683450000000     0.059190000000    -0.501103   
O30      O      0.666200000000     0.637880000000     0.058970000000    -0.504625   
O31      O      0.706160000000     0.685820000000     0.993860000000    -0.500514   
O32      O      0.637770000000     0.672480000000     0.989710000000    -0.497346   
O33      O      0.821730000000     0.213610000000     0.495370000000    -0.506895   
O34      O      0.813160000000     0.181330000000     0.461040000000    -0.494905   
O35      O      0.830070000000     0.193000000000     0.603210000000    -0.497321   
O36      O      0.845420000000     0.142060000000     0.556220000000    -0.508874   
O37      O      0.867400000000     0.194540000000     0.552520000000    -0.490939   
O38      O      0.817320000000     0.142280000000     0.507640000000    -0.492436   
O39      O      0.797870000000     0.181640000000     0.572310000000    -0.506467   
O40      O      0.865790000000     0.177750000000     0.487060000000    -0.506992   
O41      O      0.812430000000     0.798030000000     0.506120000000    -0.510065   
O42      O      0.794370000000     0.830040000000     0.488470000000    -0.495364   
O43      O      0.829920000000     0.820430000000     0.611600000000    -0.493704   
O44      O      0.859940000000     0.810740000000     0.546830000000    -0.490163   
O45      O      0.820630000000     0.869090000000     0.502640000000    -0.495637   
O46      O      0.856640000000     0.830970000000     0.485030000000    -0.508075   
O47      O      0.796860000000     0.835180000000     0.590690000000    -0.510314   
O48      O      0.841660000000     0.867860000000     0.563490000000    -0.511      
O49      O      0.167780000000     0.790800000000     0.531040000000    -0.495017   
O50      O      0.197070000000     0.812810000000     0.513630000000    -0.510287   
O51      O      0.176940000000     0.824990000000     0.406800000000    -0.492377   
O52      O      0.125210000000     0.828420000000     0.445980000000    -0.509327   
O53      O      0.156060000000     0.851750000000     0.528860000000    -0.505351   
O54      O      0.125990000000     0.807850000000     0.507600000000    -0.495341   
O55      O      0.165120000000     0.790570000000     0.426900000000    -0.50771    
O56      O      0.176580000000     0.857930000000     0.468790000000    -0.496195   
O57      O      0.200570000000     0.163120000000     0.457670000000    -0.499351   
O58      O      0.167760000000     0.179720000000     0.441100000000    -0.501061   
O59      O      0.197760000000     0.164150000000     0.569150000000    -0.508464   
O60      O      0.137330000000     0.176540000000     0.542900000000    -0.501056   
O61      O      0.182660000000     0.123510000000     0.490110000000    -0.502174   
O62      O      0.133360000000     0.155720000000     0.482210000000    -0.502794   
O63      O      0.181960000000     0.195970000000     0.543850000000    -0.504356   
O64      O      0.164020000000     0.126990000000     0.553230000000    -0.502908   
S1       S      0.168250000000     0.882940000000     0.606150000000    -0.00818005 
S2       S      0.891350000000     0.766820000000     0.528400000000    -0.00708418 
S3       S      0.813450000000     0.102690000000     0.448570000000     0.00439614 
S4       S      0.910720000000     0.210900000000     0.430010000000    -0.0216263  
S5       S      0.742400000000     0.680160000000     0.923300000000    -0.000930852
S6       S      0.661550000000     0.738340000000     0.152360000000    -0.000158522
S7       S      0.761920000000     0.166050000000     0.638270000000    -0.00811515 
S8       S      0.688040000000     0.343820000000     0.200840000000    -0.00719011 
S9       S      0.685560000000     0.400850000000     0.926780000000    -0.00349294 
S10      S      0.343680000000     0.708880000000     0.826330000000    -0.00127019 
S11      S      0.148710000000     0.762350000000     0.346120000000    -0.00895788 
S12      S      0.598540000000     0.649700000000     0.949100000000    -0.00336871 
S13      S      0.292400000000     0.249480000000     0.945330000000    -0.0081567  
S14      S      0.246020000000     0.305140000000     0.083590000000    -0.00252303 
S15      S      0.397330000000     0.341920000000     0.923890000000    -0.00235228 
S16      S      0.337940000000     0.592670000000     0.909250000000    -0.000810586


