data_structure

_audit_creation_method RASPA-1.0
_audit_creation_date 2023-5-23
_audit_author_name 'Poobodin Mano'

_cell_length_a    48.0401
_cell_length_b    30.5042
_cell_length_c    33.4949
_cell_angle_alpha 90.013
_cell_angle_beta  90.0007
_cell_angle_gamma 105.917
_cell_volume      47202.4

_symmetry_cell_setting          triclinic
_symmetry_space_group_name_Hall 'P 1'
_symmetry_space_group_name_H-M  'P 1'
_symmetry_Int_Tables_number     1

_symmetry_equiv_pos_as_xyz 'x,y,z'

loop_
_atom_site_label
_atom_site_type_symbol
_atom_site_fract_x
_atom_site_fract_y
_atom_site_fract_z
_atom_site_charge
C1       C      0.225290000000     0.579280000000     0.576520000000     0.40543    
C2       C      0.133130000000     0.484420000000     0.571050000000     0.404784   
C3       C      0.199320000000     0.503820000000     0.477550000000     0.408046   
C4       C      0.201930000000     0.428170000000     0.598560000000     0.307497   
C5       C      0.435560000000     0.478490000000     0.601130000000     0.405033   
C6       C      0.343400000000     0.383590000000     0.595770000000     0.405767   
C7       C      0.369420000000     0.459130000000     0.694690000000     0.408123   
C8       C      0.366730000000     0.534680000000     0.573640000000     0.307444   
C9       C      0.343460000000     0.383720000000     0.076460000000     0.405271   
C10      C      0.435620000000     0.478610000000     0.071050000000     0.40487    
C11      C      0.369450000000     0.459200000000     0.977530000000     0.408067   
C12      C      0.366810000000     0.534830000000     0.098580000000     0.307419   
C13      C      0.133190000000     0.484550000000     0.101190000000     0.404916   
C14      C      0.225340000000     0.579440000000     0.095780000000     0.405719   
C15      C      0.199380000000     0.503940000000     0.194720000000     0.408039   
C16      C      0.202000000000     0.428310000000     0.073700000000     0.307417   
C17      C      0.475570000000     0.463490000000     0.111300000000    -0.0206982  
C18      C      0.093230000000     0.499460000000     0.060820000000    -0.0207082  
C19      C      0.082010000000     0.459560000000     0.124140000000    -0.0204683  
C20      C      0.055750000000     0.468770000000     0.106870000000     0.0142414  
C21      C      0.062150000000     0.491520000000     0.070760000000     0.0142786  
C22      C      0.040940000000     0.504740000000     0.048860000000    -0.0647478  
C23      C      0.486800000000     0.503660000000     0.048110000000    -0.020544   
C24      C      0.027800000000     0.457950000000     0.123100000000    -0.0648812  
C25      C      0.513040000000     0.494270000000     0.065270000000     0.0141825  
C26      C      0.006580000000     0.471090000000     0.101160000000     0.014568   
C27      C      0.274020000000     0.635470000000     0.095800000000    -0.0188482  
C28      C      0.294780000000     0.327690000000     0.076430000000    -0.0186765  
C29      C      0.336840000000     0.302640000000     0.095120000000    -0.0206182  
C30      C      0.310850000000     0.263150000000     0.091730000000     0.0142662  
C31      C      0.286870000000     0.277430000000     0.080990000000     0.0123433  
C32      C      0.259730000000     0.746260000000     0.075080000000    -0.064895   
C33      C      0.231950000000     0.660520000000     0.077110000000    -0.0205764  
C34      C      0.309060000000     0.716900000000     0.097120000000    -0.0648827  
C35      C      0.257940000000     0.700010000000     0.080510000000     0.0141998  
C36      C      0.281920000000     0.685730000000     0.091250000000     0.0124437  
C37      C      0.284990000000     0.463240000000     0.002650000000    -0.0444646  
C38      C      0.283820000000     0.499950000000     0.169560000000    -0.0421015  
C39      C      0.262610000000     0.421470000000     0.151030000000    -0.0426582  
C40      C      0.273150000000     0.449410000000     0.115060000000     0.0196899  
C41      C      0.285360000000     0.494440000000     0.125720000000     0.0269403  
C42      C      0.297010000000     0.527920000000     0.097090000000    -0.0581585  
C43      C      0.306200000000     0.541720000000     0.021180000000    -0.0430989  
C44      C      0.271800000000     0.435270000000     0.075120000000    -0.058566   
C45      C      0.295670000000     0.513780000000     0.057150000000     0.0194019  
C46      C      0.283460000000     0.468750000000     0.046500000000     0.0276082  
C47      C      0.376100000000     0.424090000000     0.759400000000    -0.0199765  
C48      C      0.351520000000     0.483960000000     0.913560000000    -0.0210528  
C49      C      0.376110000000     0.424120000000     0.912810000000    -0.0200979  
C50      C      0.369370000000     0.435600000000     0.871700000000     0.0142938  
C51      C      0.355400000000     0.469800000000     0.871880000000     0.0141674  
C52      C      0.348100000000     0.488010000000     0.836110000000    -0.0644525  
C53      C      0.351510000000     0.483930000000     0.758670000000    -0.0210166  
C54      C      0.376820000000     0.417690000000     0.836110000000    -0.0651103  
C55      C      0.355420000000     0.469810000000     0.800340000000     0.014171   
C56      C      0.369380000000     0.435610000000     0.800510000000     0.0142177  
C57      C      0.192720000000     0.538950000000     0.412860000000    -0.0199153  
C58      C      0.217280000000     0.479100000000     0.258680000000    -0.0210907  
C59      C      0.192770000000     0.539040000000     0.259440000000    -0.0199528  
C60      C      0.199480000000     0.527510000000     0.300550000000     0.0141598  
C61      C      0.213400000000     0.493260000000     0.300370000000     0.0141692  
C62      C      0.220660000000     0.474990000000     0.336130000000    -0.0644513  
C63      C      0.217230000000     0.479010000000     0.413570000000    -0.0210705  
C64      C      0.192040000000     0.545420000000     0.336160000000    -0.0650891  
C65      C      0.213360000000     0.493190000000     0.371900000000     0.0141719  
C66      C      0.199440000000     0.527450000000     0.371740000000     0.0141741  
C67      C      0.093170000000     0.499480000000     0.611330000000    -0.0207212  
C68      C      0.475500000000     0.463380000000     0.560860000000    -0.0206836  
C69      C      0.486750000000     0.503570000000     0.624060000000    -0.0205843  
C70      C      0.512980000000     0.494200000000     0.606870000000     0.0142777  
C71      C      0.506570000000     0.471280000000     0.570830000000     0.0143523  
C72      C      0.027770000000     0.457960000000     0.549000000000    -0.0647403  
C73      C      0.081950000000     0.459420000000     0.548070000000    -0.0205481  
C74      C      0.540930000000     0.505050000000     0.623110000000    -0.0647592  
C75      C      0.055710000000     0.468770000000     0.565260000000     0.0142451  
C76      C      0.062110000000     0.491610000000     0.601330000000     0.0143601  
C77      C      0.294720000000     0.327550000000     0.595840000000    -0.0187998  
C78      C      0.273970000000     0.635310000000     0.576500000000    -0.0187594  
C79      C      0.231910000000     0.660360000000     0.595220000000    -0.0205972  
C80      C      0.257890000000     0.699850000000     0.591820000000     0.0142656  
C81      C      0.281870000000     0.685580000000     0.581060000000     0.0124114  
C82      C      0.309010000000     0.716750000000     0.575160000000    -0.0648029  
C83      C      0.336780000000     0.302490000000     0.577120000000    -0.02063    
C84      C      0.259690000000     0.746110000000     0.597240000000    -0.0649003  
C85      C      0.310800000000     0.263000000000     0.580540000000     0.0142823  
C86      C      0.286820000000     0.277280000000     0.591300000000     0.012445   
C87      C      0.306150000000     0.541570000000     0.651080000000    -0.0425959  
C88      C      0.262540000000     0.421280000000     0.521220000000    -0.0425245  
C89      C      0.283750000000     0.499740000000     0.502700000000    -0.0420891  
C90      C      0.285290000000     0.494250000000     0.546540000000     0.0270136  
C91      C      0.273070000000     0.449230000000     0.557200000000     0.0194992  
C92      C      0.271730000000     0.435110000000     0.597140000000    -0.0581842  
C93      C      0.284930000000     0.463110000000     0.669610000000    -0.0421375  
C94      C      0.296950000000     0.527740000000     0.575170000000    -0.0581958  
C95      C      0.283400000000     0.468600000000     0.625760000000     0.0270325  
C96      C      0.295610000000     0.513620000000     0.615110000000     0.0195464  
C97      C      0.225290000000     0.079270000000     0.576520000000     0.405235   
C98      C      0.133130000000     0.984410000000     0.571050000000     0.404611   
C99      C      0.199320000000     0.003800000000     0.477550000000     0.40846    
C100     C      0.201930000000     0.928160000000     0.598570000000     0.307556   
C101     C      0.435560000000     0.978500000000     0.601130000000     0.404742   
C102     C      0.343400000000     0.883590000000     0.595780000000     0.405647   
C103     C      0.369420000000     0.959140000000     0.694690000000     0.407941   
C104     C      0.366740000000     0.034680000000     0.573630000000     0.307838   
C105     C      0.343460000000     0.883730000000     0.076440000000     0.405857   
C106     C      0.435620000000     0.978620000000     0.071060000000     0.404919   
C107     C      0.369460000000     0.959210000000     0.977530000000     0.40806    
C108     C      0.366810000000     0.034830000000     0.098590000000     0.307631   
C109     C      0.133190000000     0.984540000000     0.101190000000     0.404786   
C110     C      0.225340000000     0.079430000000     0.095790000000     0.405594   
C111     C      0.199380000000     0.003930000000     0.194720000000     0.408508   
C112     C      0.202000000000     0.928300000000     0.073700000000     0.30724    
C113     C      0.475570000000     0.963480000000     0.111300000000    -0.0208529  
C114     C      0.093230000000     0.999460000000     0.060830000000    -0.0207481  
C115     C      0.082010000000     0.959550000000     0.124140000000    -0.0206267  
C116     C      0.055750000000     0.968770000000     0.106870000000     0.0145112  
C117     C      0.062150000000     0.991530000000     0.070770000000     0.0137338  
C118     C      0.040940000000     0.004750000000     0.048870000000    -0.0638066  
C119     C      0.486800000000     0.003680000000     0.048120000000    -0.0195556  
C120     C      0.027800000000     0.957940000000     0.123100000000    -0.0651848  
C121     C      0.513040000000     0.994280000000     0.065280000000     0.0132948  
C122     C      0.006580000000     0.971090000000     0.101170000000     0.0149135  
C123     C      0.274020000000     0.135470000000     0.095820000000    -0.0188888  
C124     C      0.294780000000     0.827700000000     0.076400000000    -0.0188269  
C125     C      0.336840000000     0.802650000000     0.095090000000    -0.0204489  
C126     C      0.310860000000     0.763150000000     0.091690000000     0.0141606  
C127     C      0.286880000000     0.777430000000     0.080950000000     0.0124206  
C128     C      0.259730000000     0.246260000000     0.075110000000    -0.0648501  
C129     C      0.231950000000     0.160510000000     0.077130000000    -0.0205621  
C130     C      0.309060000000     0.216900000000     0.097150000000    -0.0649476  
C131     C      0.257930000000     0.200010000000     0.080540000000     0.0141646  
C132     C      0.281920000000     0.185730000000     0.091280000000     0.0124926  
C133     C      0.285000000000     0.963250000000     0.002650000000    -0.0446557  
C134     C      0.283820000000     0.999930000000     0.169560000000    -0.0425427  
C135     C      0.262610000000     0.921460000000     0.151020000000    -0.0426723  
C136     C      0.273150000000     0.949410000000     0.115050000000     0.0196734  
C137     C      0.285360000000     0.994430000000     0.125720000000     0.0267998  
C138     C      0.297010000000     0.027910000000     0.097100000000    -0.0579827  
C139     C      0.306210000000     0.041730000000     0.021190000000    -0.0431719  
C140     C      0.271810000000     0.935270000000     0.075110000000    -0.0585065  
C141     C      0.295670000000     0.013780000000     0.057150000000     0.0196326  
C142     C      0.283460000000     0.968760000000     0.046490000000     0.0273976  
C143     C      0.376120000000     0.924120000000     0.759400000000    -0.0200122  
C144     C      0.351530000000     0.983980000000     0.913560000000    -0.0213569  
C145     C      0.376120000000     0.924150000000     0.912810000000    -0.0199598  
C146     C      0.369390000000     0.935630000000     0.871700000000     0.0141436  
C147     C      0.355420000000     0.969820000000     0.871880000000     0.0143603  
C148     C      0.348110000000     0.988020000000     0.836110000000    -0.064879   
C149     C      0.351520000000     0.983950000000     0.758670000000    -0.0213938  
C150     C      0.376840000000     0.917720000000     0.836110000000    -0.0650308  
C151     C      0.355430000000     0.969830000000     0.800340000000     0.0143745  
C152     C      0.369400000000     0.935630000000     0.800510000000     0.0141225  
C153     C      0.192710000000     0.038930000000     0.412860000000    -0.0200081  
C154     C      0.217280000000     0.979090000000     0.258680000000    -0.0211504  
C155     C      0.192760000000     0.039020000000     0.259440000000    -0.0200231  
C156     C      0.199470000000     0.027490000000     0.300550000000     0.014543   
C157     C      0.213390000000     0.993240000000     0.300370000000     0.0137971  
C158     C      0.220660000000     0.974980000000     0.336130000000    -0.0642564  
C159     C      0.217230000000     0.979000000000     0.413570000000    -0.0211672  
C160     C      0.192030000000     0.045400000000     0.336160000000    -0.0652673  
C161     C      0.213350000000     0.993180000000     0.371900000000     0.0138063  
C162     C      0.199430000000     0.027430000000     0.371740000000     0.0145589  
C163     C      0.093180000000     0.999480000000     0.611330000000    -0.0208469  
C164     C      0.475500000000     0.963380000000     0.560860000000    -0.0208161  
C165     C      0.486750000000     0.003590000000     0.624040000000    -0.0196412  
C166     C      0.512990000000     0.994210000000     0.606870000000     0.0134023  
C167     C      0.506570000000     0.971280000000     0.570830000000     0.014673   
C168     C      0.027770000000     0.957950000000     0.549000000000    -0.0650061  
C169     C      0.081950000000     0.959400000000     0.548080000000    -0.0206201  
C170     C      0.540930000000     0.005060000000     0.623100000000    -0.0638739  
C171     C      0.055710000000     0.968760000000     0.565260000000     0.014464   
C172     C      0.062110000000     0.991620000000     0.601330000000     0.0138609  
C173     C      0.294720000000     0.827550000000     0.595860000000    -0.0188797  
C174     C      0.273970000000     0.135310000000     0.576480000000    -0.0187828  
C175     C      0.231910000000     0.160360000000     0.595200000000    -0.0206329  
C176     C      0.257890000000     0.199850000000     0.591790000000     0.0142907  
C177     C      0.281870000000     0.185570000000     0.581030000000     0.0124425  
C178     C      0.309010000000     0.216750000000     0.575120000000    -0.0648985  
C179     C      0.336780000000     0.802490000000     0.577150000000    -0.020522   
C180     C      0.259680000000     0.246100000000     0.597200000000    -0.0649026  
C181     C      0.310810000000     0.763000000000     0.580580000000     0.0141954  
C182     C      0.286830000000     0.777280000000     0.591340000000     0.0125059  
C183     C      0.306150000000     0.041580000000     0.651080000000    -0.0426065  
C184     C      0.262540000000     0.921260000000     0.521230000000    -0.0426042  
C185     C      0.283750000000     0.999730000000     0.502700000000    -0.0426352  
C186     C      0.285290000000     0.994240000000     0.546550000000     0.0269064  
C187     C      0.273070000000     0.949230000000     0.557200000000     0.0195138  
C188     C      0.271740000000     0.935110000000     0.597140000000    -0.0581415  
C189     C      0.284940000000     0.963120000000     0.669610000000    -0.0422021  
C190     C      0.296950000000     0.027740000000     0.575170000000    -0.0580866  
C191     C      0.283400000000     0.968610000000     0.625770000000     0.0267753  
C192     C      0.295610000000     0.013620000000     0.615110000000     0.0197923  
C193     C      0.725290000000     0.579330000000     0.576400000000     0.405612   
C194     C      0.633130000000     0.484440000000     0.571010000000     0.404907   
C195     C      0.699280000000     0.503810000000     0.477470000000     0.408169   
C196     C      0.701940000000     0.428230000000     0.598510000000     0.307445   
C197     C      0.935560000000     0.478480000000     0.601120000000     0.404902   
C198     C      0.843390000000     0.383630000000     0.595650000000     0.405774   
C199     C      0.869360000000     0.459120000000     0.694600000000     0.408034   
C200     C      0.866750000000     0.534740000000     0.573580000000     0.307397   
C201     C      0.843450000000     0.383690000000     0.076410000000     0.405625   
C202     C      0.935610000000     0.478410000000     0.070920000000     0.404598   
C203     C      0.869390000000     0.459140000000     0.977440000000     0.408082   
C204     C      0.866870000000     0.534840000000     0.098440000000     0.307525   
C205     C      0.633180000000     0.484500000000     0.101090000000     0.404737   
C206     C      0.725350000000     0.579390000000     0.095720000000     0.405759   
C207     C      0.699340000000     0.503880000000     0.194620000000     0.407888   
C208     C      0.702010000000     0.428290000000     0.073550000000     0.307264   
C209     C      0.975520000000     0.463270000000     0.111240000000    -0.0213015  
C210     C      0.593240000000     0.499620000000     0.060840000000    -0.0206188  
C211     C      0.582000000000     0.459440000000     0.124020000000    -0.0205514  
C212     C      0.555770000000     0.468820000000     0.106860000000     0.0142342  
C213     C      0.562170000000     0.491740000000     0.070830000000     0.0142839  
C214     C      0.540980000000     0.505100000000     0.049020000000    -0.0647644  
C215     C      0.986760000000     0.503230000000     0.047890000000    -0.0204903  
C216     C      0.527820000000     0.457990000000     0.123110000000    -0.0647615  
C217     C      0.012990000000     0.493880000000     0.065080000000     0.014042   
C218     C      0.506630000000     0.471360000000     0.101300000000     0.014351   
C219     C      0.774020000000     0.635440000000     0.095810000000    -0.0187622  
C220     C      0.794770000000     0.327660000000     0.076380000000    -0.0187626  
C221     C      0.836820000000     0.302630000000     0.095150000000    -0.0205302  
C222     C      0.810840000000     0.263130000000     0.091750000000     0.0142054  
C223     C      0.786870000000     0.277400000000     0.080960000000     0.0123955  
C224     C      0.759730000000     0.746220000000     0.075020000000    -0.0649229  
C225     C      0.731970000000     0.660470000000     0.077050000000    -0.020465   
C226     C      0.809060000000     0.716890000000     0.097150000000    -0.0649142  
C227     C      0.757940000000     0.699970000000     0.080480000000     0.014174   
C228     C      0.781920000000     0.685700000000     0.091250000000     0.0124146  
C229     C      0.785010000000     0.463270000000     0.002630000000    -0.0445026  
C230     C      0.783820000000     0.499890000000     0.169550000000    -0.042057   
C231     C      0.762600000000     0.421430000000     0.150990000000    -0.0426164  
C232     C      0.773150000000     0.449390000000     0.115030000000     0.0196735  
C233     C      0.785370000000     0.494400000000     0.125710000000     0.026957   
C234     C      0.797030000000     0.527890000000     0.097100000000    -0.0580522  
C235     C      0.806240000000     0.541730000000     0.021190000000    -0.0430368  
C236     C      0.771810000000     0.435270000000     0.075080000000    -0.0585571  
C237     C      0.795700000000     0.513780000000     0.057150000000     0.0193117  
C238     C      0.783480000000     0.468760000000     0.046470000000     0.0276256  
C239     C      0.875950000000     0.423990000000     0.759300000000    -0.0200152  
C240     C      0.851500000000     0.483990000000     0.913470000000    -0.0211368  
C241     C      0.875950000000     0.423980000000     0.912720000000    -0.0199772  
C242     C      0.869240000000     0.435500000000     0.871610000000     0.0142028  
C243     C      0.855350000000     0.469800000000     0.871790000000     0.0142404  
C244     C      0.848090000000     0.488060000000     0.836030000000    -0.0644652  
C245     C      0.851490000000     0.483990000000     0.758580000000    -0.0210635  
C246     C      0.876640000000     0.417550000000     0.836010000000    -0.0650244  
C247     C      0.855360000000     0.469820000000     0.800260000000     0.0141949  
C248     C      0.869250000000     0.435520000000     0.800420000000     0.0142016  
C249     C      0.692610000000     0.538870000000     0.412760000000    -0.0199633  
C250     C      0.717260000000     0.479090000000     0.258600000000    -0.0211533  
C251     C      0.692660000000     0.538930000000     0.259340000000    -0.0199654  
C252     C      0.699380000000     0.527420000000     0.300450000000     0.0141453  
C253     C      0.713350000000     0.493230000000     0.300280000000     0.0142246  
C254     C      0.720640000000     0.475000000000     0.336040000000    -0.0645265  
C255     C      0.717200000000     0.479030000000     0.413490000000    -0.0210815  
C256     C      0.691920000000     0.545310000000     0.336050000000    -0.0650454  
C257     C      0.713310000000     0.493180000000     0.371810000000     0.0141888  
C258     C      0.699340000000     0.527380000000     0.371640000000     0.0141522  
C259     C      0.593190000000     0.499570000000     0.611270000000    -0.0206638  
C260     C      0.975510000000     0.463410000000     0.560840000000    -0.0206837  
C261     C      0.986730000000     0.503480000000     0.624100000000    -0.0204916  
C262     C      0.012970000000     0.494120000000     0.606910000000     0.0142142  
C263     C      0.006570000000     0.471270000000     0.570840000000     0.014327   
C264     C      0.527760000000     0.457920000000     0.549010000000    -0.0647695  
C265     C      0.581940000000     0.459380000000     0.548070000000    -0.0205996  
C266     C      0.040910000000     0.504930000000     0.623170000000    -0.0647332  
C267     C      0.555710000000     0.468770000000     0.565250000000     0.0142761  
C268     C      0.562120000000     0.491690000000     0.601290000000     0.0143445  
C269     C      0.794710000000     0.327600000000     0.595690000000    -0.0188319  
C270     C      0.773970000000     0.635360000000     0.576340000000    -0.0188163  
C271     C      0.731910000000     0.660410000000     0.595070000000    -0.0205956  
C272     C      0.757890000000     0.699910000000     0.591650000000     0.0142743  
C273     C      0.781870000000     0.685630000000     0.580890000000     0.0124423  
C274     C      0.809010000000     0.716810000000     0.574980000000    -0.0648907  
C275     C      0.836770000000     0.302550000000     0.576950000000    -0.0205291  
C276     C      0.759680000000     0.746160000000     0.597080000000    -0.0649263  
C277     C      0.810790000000     0.263060000000     0.580370000000     0.0142204  
C278     C      0.786810000000     0.277330000000     0.591140000000     0.0124812  
C279     C      0.806150000000     0.541640000000     0.650940000000    -0.0425409  
C280     C      0.762540000000     0.421330000000     0.521090000000    -0.0425476  
C281     C      0.783750000000     0.499790000000     0.502560000000    -0.0420531  
C282     C      0.785290000000     0.494300000000     0.546400000000     0.0269984  
C283     C      0.773080000000     0.449290000000     0.557060000000     0.0195408  
C284     C      0.771740000000     0.435170000000     0.597000000000    -0.0582108  
C285     C      0.784940000000     0.463180000000     0.669470000000    -0.0421497  
C286     C      0.796950000000     0.527800000000     0.575030000000    -0.058176   
C287     C      0.783400000000     0.468670000000     0.625620000000     0.0270326  
C288     C      0.795610000000     0.513680000000     0.614970000000     0.019502   
C289     C      0.725290000000     0.079320000000     0.576390000000     0.405667   
C290     C      0.633120000000     0.984430000000     0.571010000000     0.404732   
C291     C      0.699280000000     0.003800000000     0.477470000000     0.408357   
C292     C      0.701940000000     0.928220000000     0.598510000000     0.307568   
C293     C      0.935560000000     0.978490000000     0.601110000000     0.404934   
C294     C      0.843390000000     0.883640000000     0.595660000000     0.405395   
C295     C      0.869370000000     0.959140000000     0.694600000000     0.408244   
C296     C      0.866750000000     0.034740000000     0.573570000000     0.307844   
C297     C      0.843450000000     0.883690000000     0.076400000000     0.405637   
C298     C      0.935620000000     0.978420000000     0.070930000000     0.404724   
C299     C      0.869400000000     0.959160000000     0.977440000000     0.407998   
C300     C      0.866860000000     0.034840000000     0.098450000000     0.307786   
C301     C      0.633180000000     0.984490000000     0.101080000000     0.404638   
C302     C      0.725350000000     0.079390000000     0.095730000000     0.40561    
C303     C      0.699340000000     0.003870000000     0.194620000000     0.408388   
C304     C      0.702010000000     0.928290000000     0.073550000000     0.30738    
C305     C      0.975530000000     0.963270000000     0.111240000000    -0.0213909  
C306     C      0.593240000000     0.999630000000     0.060840000000    -0.0208051  
C307     C      0.582000000000     0.959420000000     0.124020000000    -0.0206922  
C308     C      0.555770000000     0.968810000000     0.106860000000     0.0145098  
C309     C      0.562170000000     0.991740000000     0.070830000000     0.0137913  
C310     C      0.540980000000     0.005120000000     0.049030000000    -0.063868   
C311     C      0.986770000000     0.003250000000     0.047910000000    -0.0195435  
C312     C      0.527830000000     0.957980000000     0.123110000000    -0.0650598  
C313     C      0.012990000000     0.993900000000     0.065090000000     0.0131507  
C314     C      0.506640000000     0.971360000000     0.101310000000     0.0146867  
C315     C      0.774020000000     0.135440000000     0.095830000000    -0.0187757  
C316     C      0.794770000000     0.827660000000     0.076360000000    -0.0187608  
C317     C      0.836830000000     0.802630000000     0.095120000000    -0.0205624  
C318     C      0.810850000000     0.763130000000     0.091700000000     0.0142271  
C319     C      0.786870000000     0.777400000000     0.080920000000     0.012397   
C320     C      0.759730000000     0.246210000000     0.075060000000    -0.0649044  
C321     C      0.731960000000     0.160470000000     0.077060000000    -0.0205984  
C322     C      0.809050000000     0.216890000000     0.097190000000    -0.0648693  
C323     C      0.757940000000     0.199970000000     0.080500000000     0.0142379  
C324     C      0.781920000000     0.185700000000     0.091280000000     0.0124039  
C325     C      0.785020000000     0.963280000000     0.002620000000    -0.0446031  
C326     C      0.783820000000     0.999880000000     0.169550000000    -0.0426018  
C327     C      0.762600000000     0.921410000000     0.150980000000    -0.0426866  
C328     C      0.773150000000     0.949380000000     0.115020000000     0.0196828  
C329     C      0.785360000000     0.994390000000     0.125710000000     0.0268432  
C330     C      0.797030000000     0.027890000000     0.097100000000    -0.0579472  
C331     C      0.806240000000     0.041740000000     0.021200000000    -0.0431064  
C332     C      0.771810000000     0.935270000000     0.075080000000    -0.0585116  
C333     C      0.795700000000     0.013780000000     0.057150000000     0.0195837  
C334     C      0.783480000000     0.968770000000     0.046470000000     0.0273582  
C335     C      0.875960000000     0.924020000000     0.759300000000    -0.0199091  
C336     C      0.851510000000     0.984000000000     0.913470000000    -0.0213583  
C337     C      0.875970000000     0.924010000000     0.912720000000    -0.0199772  
C338     C      0.869260000000     0.935530000000     0.871610000000     0.0141373  
C339     C      0.855360000000     0.969820000000     0.871790000000     0.0143699  
C340     C      0.848100000000     0.988070000000     0.836030000000    -0.064843   
C341     C      0.851500000000     0.984000000000     0.758580000000    -0.0212907  
C342     C      0.876660000000     0.917580000000     0.836010000000    -0.065003   
C343     C      0.855370000000     0.969840000000     0.800260000000     0.0143376  
C344     C      0.869270000000     0.935550000000     0.800420000000     0.0141006  
C345     C      0.692600000000     0.038850000000     0.412760000000    -0.020168   
C346     C      0.717250000000     0.979080000000     0.258600000000    -0.0210157  
C347     C      0.692660000000     0.038910000000     0.259340000000    -0.0200739  
C348     C      0.699370000000     0.027410000000     0.300450000000     0.0146297  
C349     C      0.713340000000     0.993210000000     0.300280000000     0.013717   
C350     C      0.720630000000     0.974990000000     0.336040000000    -0.0641708  
C351     C      0.717200000000     0.979020000000     0.413490000000    -0.0210515  
C352     C      0.691910000000     0.045290000000     0.336050000000    -0.0653841  
C353     C      0.713310000000     0.993160000000     0.371810000000     0.0137079  
C354     C      0.699330000000     0.027360000000     0.371640000000     0.0146619  
C355     C      0.593190000000     0.999570000000     0.611270000000    -0.0208041  
C356     C      0.975510000000     0.963420000000     0.560840000000    -0.0207113  
C357     C      0.986730000000     0.003500000000     0.624090000000    -0.0196002  
C358     C      0.012970000000     0.994140000000     0.606900000000     0.0133527  
C359     C      0.006580000000     0.971270000000     0.570840000000     0.0146207  
C360     C      0.527760000000     0.957910000000     0.549020000000    -0.0650213  
C361     C      0.581940000000     0.959360000000     0.548080000000    -0.0206383  
C362     C      0.040910000000     0.004950000000     0.623160000000    -0.0638401  
C363     C      0.555710000000     0.968770000000     0.565250000000     0.0144804  
C364     C      0.562120000000     0.991700000000     0.601280000000     0.0138692  
C365     C      0.794720000000     0.827600000000     0.595710000000    -0.0187814  
C366     C      0.773960000000     0.135360000000     0.576320000000    -0.0187454  
C367     C      0.731910000000     0.160410000000     0.595060000000    -0.0205278  
C368     C      0.757890000000     0.199900000000     0.591630000000     0.0142439  
C369     C      0.781860000000     0.185630000000     0.580870000000     0.0124114  
C370     C      0.809000000000     0.216810000000     0.574950000000    -0.0648115  
C371     C      0.836770000000     0.802550000000     0.576980000000    -0.0205636  
C372     C      0.759680000000     0.246160000000     0.597050000000    -0.0648573  
C373     C      0.810800000000     0.763060000000     0.580420000000     0.0142474  
C374     C      0.786820000000     0.777330000000     0.591180000000     0.0124574  
C375     C      0.806150000000     0.041650000000     0.650930000000    -0.0426464  
C376     C      0.762540000000     0.921310000000     0.521100000000    -0.042649   
C377     C      0.783750000000     0.999780000000     0.502560000000    -0.0426426  
C378     C      0.785290000000     0.994300000000     0.546400000000     0.0269273  
C379     C      0.773080000000     0.949280000000     0.557070000000     0.0195465  
C380     C      0.771740000000     0.935170000000     0.597010000000    -0.0581642  
C381     C      0.784940000000     0.963190000000     0.669480000000    -0.0422238  
C382     C      0.796950000000     0.027800000000     0.575020000000    -0.0580779  
C383     C      0.783400000000     0.968670000000     0.625630000000     0.0267781  
C384     C      0.795610000000     0.013690000000     0.614970000000     0.0197911  
H1       H      0.079310000000     0.422330000000     0.126990000000     0.0455302  
H2       H      0.096000000000     0.481700000000     0.032750000000     0.0452837  
H3       H      0.545970000000     0.523000000000     0.020890000000     0.0467048  
H4       H      0.022830000000     0.440220000000     0.151310000000     0.0468557  
H5       H      0.464570000000     0.426520000000     0.114550000000     0.0491608  
H6       H      0.489550000000     0.540910000000     0.045430000000     0.045489   
H7       H      0.087070000000     0.475560000000     0.154060000000     0.0480789  
H8       H      0.104190000000     0.536420000000     0.057470000000     0.0491037  
H9       H      0.481710000000     0.487820000000     0.018140000000     0.0480015  
H10      H      0.472840000000     0.481140000000     0.139440000000     0.0453849  
H11      H      0.354300000000     0.299100000000     0.074630000000     0.0480055  
H12      H      0.289640000000     0.337760000000     0.045990000000     0.0419744  
H13      H      0.240990000000     0.757400000000     0.066730000000     0.0453818  
H14      H      0.327800000000     0.205760000000     0.105490000000     0.0454485  
H15      H      0.285580000000     0.620040000000     0.073480000000     0.0401092  
H16      H      0.214490000000     0.664050000000     0.097610000000     0.048044   
H17      H      0.345330000000     0.306390000000     0.126160000000     0.0466296  
H18      H      0.283210000000     0.343130000000     0.098740000000     0.040082   
H19      H      0.223460000000     0.656780000000     0.046080000000     0.0465232  
H20      H      0.279150000000     0.625400000000     0.126230000000     0.0421628  
H21      H      0.274040000000     0.394650000000     0.154740000000     0.0478906  
H22      H      0.305840000000     0.512450000000     0.182560000000     0.048817   
H23      H      0.306790000000     0.563000000000     0.105510000000     0.0443509  
H24      H      0.262030000000     0.400180000000     0.066700000000     0.0443843  
H25      H      0.298130000000     0.439580000000     0.995060000000     0.051964   
H26      H      0.294780000000     0.568540000000     0.017480000000     0.0478484  
H27      H      0.238890000000     0.405790000000     0.149410000000     0.0555103  
H28      H      0.270680000000     0.523600000000     0.177150000000     0.0509647  
H29      H      0.329930000000     0.557400000000     0.022800000000     0.0554558  
H30      H      0.262970000000     0.450740000000     0.989660000000     0.0498391  
H31      H      0.399760000000     0.429460000000     0.916990000000     0.0487533  
H32      H      0.362150000000     0.520820000000     0.918270000000     0.0490381  
H33      H      0.337710000000     0.515310000000     0.836120000000     0.0478558  
H34      H      0.388260000000     0.391660000000     0.836100000000     0.0465717  
H35      H      0.399760000000     0.429440000000     0.755210000000     0.0486243  
H36      H      0.328180000000     0.476900000000     0.751090000000     0.0481655  
H37      H      0.364770000000     0.388110000000     0.920110000000     0.0448508  
H38      H      0.328200000000     0.476930000000     0.921150000000     0.0482343  
H39      H      0.362140000000     0.520790000000     0.753940000000     0.0489422  
H40      H      0.364760000000     0.388070000000     0.752110000000     0.0447365  
H41      H      0.204150000000     0.575040000000     0.252160000000     0.0446926  
H42      H      0.240600000000     0.486080000000     0.251100000000     0.0481788  
H43      H      0.231020000000     0.447640000000     0.336120000000     0.0477826  
H44      H      0.180640000000     0.571500000000     0.336160000000     0.046496   
H45      H      0.204090000000     0.574950000000     0.420180000000     0.0446766  
H46      H      0.206560000000     0.442160000000     0.418270000000     0.0489475  
H47      H      0.169120000000     0.533780000000     0.255260000000     0.0485928  
H48      H      0.206610000000     0.442260000000     0.253950000000     0.048951   
H49      H      0.240550000000     0.485980000000     0.421170000000     0.0481627  
H50      H      0.169060000000     0.533670000000     0.417030000000     0.0485798  
H51      H      0.489480000000     0.540820000000     0.626750000000     0.0455954  
H52      H      0.472750000000     0.481020000000     0.532720000000     0.0453744  
H53      H      0.022780000000     0.440120000000     0.520830000000     0.0467988  
H54      H      0.545930000000     0.522940000000     0.651250000000     0.0468469  
H55      H      0.104170000000     0.536440000000     0.614650000000     0.0491899  
H56      H      0.079210000000     0.422170000000     0.545320000000     0.0455816  
H57      H      0.481670000000     0.487730000000     0.654020000000     0.0481711  
H58      H      0.464500000000     0.426410000000     0.557600000000     0.0491849  
H59      H      0.087050000000     0.475310000000     0.518130000000     0.048133   
H60      H      0.095900000000     0.481770000000     0.639440000000     0.045413   
H61      H      0.214440000000     0.663890000000     0.574740000000     0.0480748  
H62      H      0.279100000000     0.625230000000     0.546060000000     0.0421268  
H63      H      0.327750000000     0.705600000000     0.566790000000     0.0454188  
H64      H      0.240950000000     0.757250000000     0.605590000000     0.0454644  
H65      H      0.283140000000     0.342950000000     0.573530000000     0.0401321  
H66      H      0.354250000000     0.298980000000     0.597600000000     0.0481022  
H67      H      0.223430000000     0.656630000000     0.626260000000     0.0466427  
H68      H      0.285540000000     0.619890000000     0.598810000000     0.0401365  
H69      H      0.345250000000     0.306210000000     0.546070000000     0.0466358  
H70      H      0.289600000000     0.337640000000     0.626270000000     0.0421595  
H71      H      0.305770000000     0.512240000000     0.489710000000     0.0488181  
H72      H      0.273960000000     0.394450000000     0.517520000000     0.04786    
H73      H      0.261960000000     0.400020000000     0.605560000000     0.0443554  
H74      H      0.306720000000     0.562830000000     0.566750000000     0.0443555  
H75      H      0.329870000000     0.557260000000     0.649470000000     0.0555311  
H76      H      0.262920000000     0.450610000000     0.682600000000     0.0488653  
H77      H      0.270610000000     0.523400000000     0.495110000000     0.0509534  
H78      H      0.238810000000     0.405590000000     0.522840000000     0.0554709  
H79      H      0.298070000000     0.439450000000     0.677190000000     0.0509934  
H80      H      0.294730000000     0.568400000000     0.654800000000     0.0478914  
H81      H      0.079300000000     0.922320000000     0.126970000000     0.0455587  
H82      H      0.096000000000     0.981720000000     0.032750000000     0.0452208  
H83      H      0.545980000000     0.023020000000     0.020900000000     0.0465671  
H84      H      0.022830000000     0.940200000000     0.151300000000     0.0469104  
H85      H      0.464570000000     0.926520000000     0.114550000000     0.0491777  
H86      H      0.489550000000     0.040940000000     0.045460000000     0.0453595  
H87      H      0.087070000000     0.975540000000     0.154050000000     0.0480934  
H88      H      0.104190000000     0.036430000000     0.057480000000     0.0492475  
H89      H      0.481710000000     0.987850000000     0.018150000000     0.0476664  
H90      H      0.472840000000     0.981130000000     0.139450000000     0.0453624  
H91      H      0.354310000000     0.799120000000     0.074600000000     0.047952   
H92      H      0.289650000000     0.837770000000     0.045970000000     0.0420182  
H93      H      0.240990000000     0.257400000000     0.066760000000     0.0453785  
H94      H      0.327800000000     0.705760000000     0.105470000000     0.0454158  
H95      H      0.285580000000     0.120050000000     0.073500000000     0.0401322  
H96      H      0.214490000000     0.164040000000     0.097620000000     0.0480627  
H97      H      0.345330000000     0.806380000000     0.126130000000     0.0465761  
H98      H      0.283210000000     0.843120000000     0.098710000000     0.0401217  
H99      H      0.223470000000     0.156780000000     0.046090000000     0.0465365  
H100     H      0.279150000000     0.125390000000     0.126250000000     0.0421785  
H101     H      0.274040000000     0.894640000000     0.154730000000     0.047884   
H102     H      0.305840000000     0.012440000000     0.182560000000     0.0490759  
H103     H      0.306780000000     0.063000000000     0.105520000000     0.0443282  
H104     H      0.262030000000     0.900180000000     0.066690000000     0.0443624  
H105     H      0.298130000000     0.939600000000     0.995060000000     0.0519964  
H106     H      0.294780000000     0.068550000000     0.017480000000     0.0478859  
H107     H      0.238890000000     0.905770000000     0.149400000000     0.0555031  
H108     H      0.270680000000     0.023590000000     0.177150000000     0.0511965  
H109     H      0.329930000000     0.057410000000     0.022810000000     0.0555177  
H110     H      0.262980000000     0.950750000000     0.989650000000     0.049833   
H111     H      0.399780000000     0.929500000000     0.916990000000     0.048688   
H112     H      0.362160000000     0.020840000000     0.918270000000     0.0492796  
H113     H      0.337710000000     0.015320000000     0.836120000000     0.0481142  
H114     H      0.388280000000     0.891690000000     0.836100000000     0.0465382  
H115     H      0.399770000000     0.929470000000     0.755210000000     0.0486299  
H116     H      0.328190000000     0.976910000000     0.751090000000     0.0481844  
H117     H      0.364790000000     0.888130000000     0.920110000000     0.044805   
H118     H      0.328200000000     0.976940000000     0.921150000000     0.0482314  
H119     H      0.362140000000     0.020810000000     0.753940000000     0.0492016  
H120     H      0.364780000000     0.888100000000     0.752110000000     0.0447352  
H121     H      0.204140000000     0.075030000000     0.252160000000     0.0447126  
H122     H      0.240590000000     0.986070000000     0.251100000000     0.0481315  
H123     H      0.231020000000     0.947630000000     0.336120000000     0.0477155  
H124     H      0.180620000000     0.071480000000     0.336160000000     0.0465485  
H125     H      0.204080000000     0.074930000000     0.420180000000     0.0447235  
H126     H      0.206560000000     0.942150000000     0.418270000000     0.0489269  
H127     H      0.169110000000     0.033750000000     0.255260000000     0.048662   
H128     H      0.206610000000     0.942240000000     0.253950000000     0.048931   
H129     H      0.240540000000     0.985970000000     0.421170000000     0.0481291  
H130     H      0.169050000000     0.033650000000     0.417030000000     0.0486394  
H131     H      0.489490000000     0.040840000000     0.626730000000     0.0454786  
H132     H      0.472750000000     0.981010000000     0.532720000000     0.0453709  
H133     H      0.022780000000     0.940100000000     0.520840000000     0.0468434  
H134     H      0.545930000000     0.022960000000     0.651240000000     0.0467066  
H135     H      0.104180000000     0.036440000000     0.614630000000     0.0493794  
H136     H      0.079210000000     0.922150000000     0.545340000000     0.0455836  
H137     H      0.481670000000     0.987760000000     0.654010000000     0.0478368  
H138     H      0.464510000000     0.926410000000     0.557610000000     0.0492002  
H139     H      0.087050000000     0.975290000000     0.518130000000     0.0481009  
H140     H      0.095900000000     0.981790000000     0.639440000000     0.045378   
H141     H      0.214440000000     0.163880000000     0.574730000000     0.0481151  
H142     H      0.279090000000     0.125220000000     0.546040000000     0.0421551  
H143     H      0.327740000000     0.205600000000     0.566760000000     0.0454814  
H144     H      0.240950000000     0.257250000000     0.605560000000     0.045484   
H145     H      0.283140000000     0.842940000000     0.573550000000     0.0401463  
H146     H      0.354260000000     0.798990000000     0.597620000000     0.0480699  
H147     H      0.223440000000     0.156630000000     0.626250000000     0.0466664  
H148     H      0.285550000000     0.119890000000     0.598790000000     0.0401339  
H149     H      0.345250000000     0.806200000000     0.546100000000     0.0465984  
H150     H      0.289610000000     0.837660000000     0.626300000000     0.0421716  
H151     H      0.305770000000     0.012220000000     0.489710000000     0.0491092  
H152     H      0.273960000000     0.894440000000     0.517530000000     0.0478781  
H153     H      0.261970000000     0.900030000000     0.605570000000     0.0443518  
H154     H      0.306720000000     0.062820000000     0.566750000000     0.0443652  
H155     H      0.329880000000     0.057260000000     0.649460000000     0.0555681  
H156     H      0.262920000000     0.950620000000     0.682610000000     0.0488108  
H157     H      0.270610000000     0.023380000000     0.495110000000     0.0512486  
H158     H      0.238810000000     0.905580000000     0.522850000000     0.0555001  
H159     H      0.298080000000     0.939470000000     0.677200000000     0.0509865  
H160     H      0.294730000000     0.068410000000     0.654790000000     0.0479151  
H161     H      0.579260000000     0.422190000000     0.126700000000     0.0455503  
H162     H      0.595970000000     0.481960000000     0.032690000000     0.0452643  
H163     H      0.045930000000     0.522540000000     0.020690000000     0.046697   
H164     H      0.522840000000     0.440100000000     0.151250000000     0.0468029  
H165     H      0.964450000000     0.426290000000     0.114120000000     0.0495348  
H166     H      0.989530000000     0.540480000000     0.045090000000     0.0454948  
H167     H      0.587100000000     0.475280000000     0.153990000000     0.0481332  
H168     H      0.604240000000     0.536590000000     0.057590000000     0.0490964  
H169     H      0.981640000000     0.487260000000     0.017980000000     0.0479935  
H170     H      0.972810000000     0.481380000000     0.139140000000     0.0457403  
H171     H      0.854300000000     0.299080000000     0.074690000000     0.0479691  
H172     H      0.789640000000     0.337710000000     0.045940000000     0.0420103  
H173     H      0.741000000000     0.757350000000     0.066650000000     0.0454122  
H174     H      0.827790000000     0.205750000000     0.105550000000     0.0454128  
H175     H      0.785610000000     0.620020000000     0.073510000000     0.0400663  
H176     H      0.714490000000     0.664000000000     0.097520000000     0.0480144  
H177     H      0.845300000000     0.306390000000     0.126190000000     0.0466011  
H178     H      0.783190000000     0.343100000000     0.098670000000     0.0401099  
H179     H      0.723500000000     0.656730000000     0.046000000000     0.0464962  
H180     H      0.779140000000     0.625370000000     0.126250000000     0.0421278  
H181     H      0.774020000000     0.394600000000     0.154690000000     0.0478834  
H182     H      0.805840000000     0.512380000000     0.182560000000     0.0488062  
H183     H      0.806810000000     0.562980000000     0.105530000000     0.0443117  
H184     H      0.762030000000     0.400180000000     0.066650000000     0.0443746  
H185     H      0.798150000000     0.439610000000     0.995030000000     0.0519571  
H186     H      0.794830000000     0.568570000000     0.017500000000     0.0478206  
H187     H      0.738870000000     0.405760000000     0.149360000000     0.0555159  
H188     H      0.770690000000     0.523550000000     0.177140000000     0.0509737  
H189     H      0.829970000000     0.557400000000     0.022820000000     0.0553627  
H190     H      0.762990000000     0.450790000000     0.989630000000     0.049853   
H191     H      0.899600000000     0.429210000000     0.916880000000     0.0487198  
H192     H      0.862190000000     0.520830000000     0.918190000000     0.0490615  
H193     H      0.837760000000     0.515440000000     0.836040000000     0.0478477  
H194     H      0.888030000000     0.391440000000     0.836000000000     0.046529   
H195     H      0.899590000000     0.429220000000     0.755120000000     0.0486512  
H196     H      0.828170000000     0.477050000000     0.751000000000     0.0481943  
H197     H      0.864550000000     0.387990000000     0.920020000000     0.0448099  
H198     H      0.828190000000     0.477060000000     0.921070000000     0.0482623  
H199     H      0.862180000000     0.520830000000     0.753870000000     0.0489631  
H200     H      0.864550000000     0.388000000000     0.752000000000     0.0447374  
H201     H      0.704010000000     0.574950000000     0.252070000000     0.044697   
H202     H      0.740580000000     0.486120000000     0.251020000000     0.0481862  
H203     H      0.731030000000     0.447700000000     0.336040000000     0.0478205  
H204     H      0.680480000000     0.571350000000     0.336060000000     0.0464716  
H205     H      0.703950000000     0.574880000000     0.420070000000     0.044706   
H206     H      0.706570000000     0.442170000000     0.418190000000     0.0489432  
H207     H      0.669010000000     0.533600000000     0.255160000000     0.0486001  
H208     H      0.706620000000     0.442230000000     0.253860000000     0.0489654  
H209     H      0.740520000000     0.486060000000     0.421080000000     0.0481636  
H210     H      0.668950000000     0.533520000000     0.416930000000     0.0485955  
H211     H      0.989480000000     0.540730000000     0.626850000000     0.0455836  
H212     H      0.972780000000     0.481120000000     0.532730000000     0.0453938  
H213     H      0.522760000000     0.440010000000     0.520880000000     0.0468284  
H214     H      0.045900000000     0.522770000000     0.651340000000     0.0468212  
H215     H      0.604190000000     0.536540000000     0.614530000000     0.0491869  
H216     H      0.579190000000     0.422120000000     0.545380000000     0.0455897  
H217     H      0.981630000000     0.487580000000     0.654040000000     0.0481477  
H218     H      0.964510000000     0.426460000000     0.557520000000     0.04919    
H219     H      0.587030000000     0.475210000000     0.518110000000     0.0481589  
H220     H      0.595930000000     0.481920000000     0.639410000000     0.045402   
H221     H      0.714440000000     0.663930000000     0.574590000000     0.0480827  
H222     H      0.779090000000     0.625280000000     0.545900000000     0.0421423  
H223     H      0.827740000000     0.705660000000     0.566620000000     0.045467   
H224     H      0.740950000000     0.757300000000     0.605440000000     0.0454911  
H225     H      0.783130000000     0.343010000000     0.573380000000     0.0401362  
H226     H      0.854250000000     0.299030000000     0.597420000000     0.0480774  
H227     H      0.723430000000     0.656690000000     0.626110000000     0.0466386  
H228     H      0.785540000000     0.619950000000     0.598640000000     0.0401547  
H229     H      0.845240000000     0.306280000000     0.545910000000     0.0466155  
H230     H      0.789590000000     0.337690000000     0.626130000000     0.0421649  
H231     H      0.805770000000     0.512290000000     0.489560000000     0.0488004  
H232     H      0.773960000000     0.394500000000     0.517380000000     0.0478679  
H233     H      0.761960000000     0.400090000000     0.605420000000     0.0443727  
H234     H      0.806720000000     0.562880000000     0.566600000000     0.0443569  
H235     H      0.829880000000     0.557320000000     0.649320000000     0.0554874  
H236     H      0.762920000000     0.450680000000     0.682460000000     0.0488558  
H237     H      0.770610000000     0.523450000000     0.494970000000     0.0509544  
H238     H      0.738810000000     0.405650000000     0.522710000000     0.0554984  
H239     H      0.798070000000     0.439530000000     0.677060000000     0.050987   
H240     H      0.794730000000     0.568470000000     0.654640000000     0.0478771  
H241     H      0.579260000000     0.922170000000     0.126680000000     0.0455701  
H242     H      0.595970000000     0.981980000000     0.032690000000     0.0452351  
H243     H      0.045930000000     0.022570000000     0.020700000000     0.0465349  
H244     H      0.522830000000     0.940080000000     0.151240000000     0.0468523  
H245     H      0.964450000000     0.926290000000     0.114120000000     0.0495312  
H246     H      0.989530000000     0.040500000000     0.045110000000     0.0453768  
H247     H      0.587090000000     0.975250000000     0.153990000000     0.0481232  
H248     H      0.604240000000     0.036590000000     0.057600000000     0.049297   
H249     H      0.981640000000     0.987290000000     0.017990000000     0.047658   
H250     H      0.972810000000     0.981370000000     0.139150000000     0.045713   
H251     H      0.854310000000     0.799090000000     0.074660000000     0.047969   
H252     H      0.789650000000     0.837720000000     0.045910000000     0.042      
H253     H      0.741000000000     0.257350000000     0.066670000000     0.0454007  
H254     H      0.827790000000     0.705750000000     0.105530000000     0.0454263  
H255     H      0.785610000000     0.120020000000     0.073530000000     0.0400824  
H256     H      0.714480000000     0.163990000000     0.097530000000     0.0480698  
H257     H      0.845300000000     0.806380000000     0.126170000000     0.046596   
H258     H      0.783190000000     0.843090000000     0.098650000000     0.0401097  
H259     H      0.723500000000     0.156730000000     0.046010000000     0.0465531  
H260     H      0.779130000000     0.125360000000     0.126270000000     0.0421501  
H261     H      0.774020000000     0.894590000000     0.154680000000     0.0479009  
H262     H      0.805840000000     0.012370000000     0.182560000000     0.0490872  
H263     H      0.806810000000     0.062970000000     0.105540000000     0.0443115  
H264     H      0.762040000000     0.900180000000     0.066640000000     0.0443631  
H265     H      0.798150000000     0.939620000000     0.995020000000     0.0519525  
H266     H      0.794830000000     0.068580000000     0.017500000000     0.0478602  
H267     H      0.738870000000     0.905740000000     0.149350000000     0.055528   
H268     H      0.770690000000     0.023540000000     0.177150000000     0.0512455  
H269     H      0.829970000000     0.057410000000     0.022830000000     0.0554035  
H270     H      0.763000000000     0.950800000000     0.989620000000     0.0498238  
H271     H      0.899620000000     0.929240000000     0.916880000000     0.048694   
H272     H      0.862200000000     0.020850000000     0.918190000000     0.049273   
H273     H      0.837760000000     0.015450000000     0.836040000000     0.0480906  
H274     H      0.888050000000     0.891480000000     0.836000000000     0.0465224  
H275     H      0.899610000000     0.929250000000     0.755120000000     0.0485877  
H276     H      0.828180000000     0.977070000000     0.751000000000     0.0481774  
H277     H      0.864580000000     0.888020000000     0.920020000000     0.0448031  
H278     H      0.828190000000     0.977070000000     0.921070000000     0.0482358  
H279     H      0.862180000000     0.020850000000     0.753870000000     0.0491705  
H280     H      0.864570000000     0.888020000000     0.752000000000     0.044698   
H281     H      0.703990000000     0.074930000000     0.252070000000     0.0447336  
H282     H      0.740580000000     0.986120000000     0.251020000000     0.0480788  
H283     H      0.731030000000     0.947680000000     0.336040000000     0.0476823  
H284     H      0.680470000000     0.071320000000     0.336060000000     0.0465926  
H285     H      0.703930000000     0.074860000000     0.420070000000     0.0447698  
H286     H      0.706570000000     0.942160000000     0.418190000000     0.0489017  
H287     H      0.669000000000     0.033570000000     0.255150000000     0.0486571  
H288     H      0.706620000000     0.942220000000     0.253860000000     0.0488971  
H289     H      0.740520000000     0.986050000000     0.421080000000     0.0480948  
H290     H      0.668940000000     0.033500000000     0.416930000000     0.0486798  
H291     H      0.989480000000     0.040750000000     0.626830000000     0.0454785  
H292     H      0.972780000000     0.981110000000     0.532720000000     0.0453486  
H293     H      0.522760000000     0.940000000000     0.520890000000     0.046861   
H294     H      0.045900000000     0.022800000000     0.651330000000     0.0466775  
H295     H      0.604190000000     0.036540000000     0.614520000000     0.0493671  
H296     H      0.579190000000     0.922110000000     0.545400000000     0.0455903  
H297     H      0.981640000000     0.987610000000     0.654030000000     0.0478245  
H298     H      0.964510000000     0.926460000000     0.557530000000     0.0491797  
H299     H      0.587030000000     0.975190000000     0.518110000000     0.0481211  
H300     H      0.595930000000     0.981930000000     0.639410000000     0.0453673  
H301     H      0.714430000000     0.163920000000     0.574580000000     0.0480793  
H302     H      0.779080000000     0.125270000000     0.545880000000     0.0421323  
H303     H      0.827740000000     0.205660000000     0.566590000000     0.0454346  
H304     H      0.740940000000     0.257300000000     0.605420000000     0.0454579  
H305     H      0.783140000000     0.843000000000     0.573400000000     0.040126   
H306     H      0.854250000000     0.799040000000     0.597450000000     0.0480858  
H307     H      0.723440000000     0.156690000000     0.626100000000     0.046649   
H308     H      0.785550000000     0.119950000000     0.598620000000     0.0401167  
H309     H      0.845240000000     0.806270000000     0.545930000000     0.0466056  
H310     H      0.789600000000     0.837700000000     0.626150000000     0.0421508  
H311     H      0.805770000000     0.012270000000     0.489560000000     0.0490998  
H312     H      0.773960000000     0.894490000000     0.517400000000     0.0478892  
H313     H      0.761970000000     0.900090000000     0.605440000000     0.0443627  
H314     H      0.806720000000     0.062880000000     0.566600000000     0.0443613  
H315     H      0.829880000000     0.057330000000     0.649310000000     0.0555549  
H316     H      0.762920000000     0.950700000000     0.682470000000     0.0488341  
H317     H      0.770610000000     0.023430000000     0.494970000000     0.051265   
H318     H      0.738810000000     0.905640000000     0.522720000000     0.0555319  
H319     H      0.798080000000     0.939540000000     0.677060000000     0.0509819  
H320     H      0.794730000000     0.068480000000     0.654630000000     0.0479256  
In1      In     0.190060000000     0.497320000000     0.556860000000     2.40305    
In2      In     0.378630000000     0.465570000000     0.615370000000     2.40294    
In3      In     0.378690000000     0.465690000000     0.056840000000     2.40183    
In4      In     0.190120000000     0.497470000000     0.115410000000     2.40325    
In5      In     0.190060000000     0.997310000000     0.556860000000     2.40248    
In6      In     0.378630000000     0.965580000000     0.615370000000     2.40273    
In7      In     0.378690000000     0.965700000000     0.056840000000     2.40171    
In8      In     0.190120000000     0.997460000000     0.115410000000     2.40246    
In9      In     0.690060000000     0.497350000000     0.556780000000     2.40333    
In10     In     0.878620000000     0.465600000000     0.615300000000     2.40293    
In11     In     0.878690000000     0.465630000000     0.056740000000     2.40153    
In12     In     0.690120000000     0.497420000000     0.115310000000     2.40293    
In13     In     0.690050000000     0.997340000000     0.556780000000     2.40223    
In14     In     0.878630000000     0.965610000000     0.615300000000     2.40269    
In15     In     0.878690000000     0.965640000000     0.056740000000     2.40154    
In16     In     0.690120000000     0.997410000000     0.115310000000     2.40241    
N1       N      0.464180000000     0.483150000000     0.077170000000    -0.166155   
N2       N      0.104620000000     0.479980000000     0.095060000000    -0.166121   
N3       N      0.242800000000     0.621720000000     0.088160000000    -0.166489   
N4       N      0.325990000000     0.341440000000     0.084070000000    -0.166425   
N5       N      0.299040000000     0.508930000000     0.988990000000    -0.091902   
N6       N      0.269780000000     0.454250000000     0.183220000000    -0.0927801  
N7       N      0.365290000000     0.455470000000     0.734730000000    -0.166559   
N8       N      0.365310000000     0.455520000000     0.937490000000    -0.166469   
N9       N      0.203470000000     0.507500000000     0.437520000000    -0.166582   
N10      N      0.203530000000     0.507610000000     0.234760000000    -0.16653    
N11      N      0.104560000000     0.479870000000     0.577160000000    -0.166057   
N12      N      0.464120000000     0.483040000000     0.595010000000    -0.166168   
N13      N      0.325930000000     0.341300000000     0.588170000000    -0.166446   
N14      N      0.242760000000     0.621560000000     0.584160000000    -0.166388   
N15      N      0.298980000000     0.508810000000     0.683270000000    -0.0927622  
N16      N      0.269700000000     0.454040000000     0.489030000000    -0.0927909  
N17      N      0.464190000000     0.983160000000     0.077170000000    -0.166277   
N18      N      0.104620000000     0.979970000000     0.095060000000    -0.166097   
N19      N      0.242800000000     0.121710000000     0.088170000000    -0.16645    
N20      N      0.326000000000     0.841450000000     0.084050000000    -0.166554   
N21      N      0.299040000000     0.008950000000     0.988990000000    -0.0917381  
N22      N      0.269780000000     0.954240000000     0.183220000000    -0.0927558  
N23      N      0.365300000000     0.955490000000     0.734730000000    -0.166512   
N24      N      0.365320000000     0.955540000000     0.937490000000    -0.166473   
N25      N      0.203470000000     0.007490000000     0.437520000000    -0.166526   
N26      N      0.203520000000     0.007590000000     0.234760000000    -0.1665     
N27      N      0.104570000000     0.979870000000     0.577160000000    -0.166094   
N28      N      0.464120000000     0.983050000000     0.595000000000    -0.16627    
N29      N      0.325940000000     0.841300000000     0.588190000000    -0.166471   
N30      N      0.242760000000     0.121560000000     0.584150000000    -0.166312   
N31      N      0.298990000000     0.008820000000     0.683270000000    -0.092621   
N32      N      0.269700000000     0.954030000000     0.489040000000    -0.0927438  
N33      N      0.964170000000     0.482870000000     0.077020000000    -0.166096   
N34      N      0.604620000000     0.479950000000     0.094970000000    -0.166162   
N35      N      0.742810000000     0.621680000000     0.088120000000    -0.166505   
N36      N      0.825980000000     0.341420000000     0.084060000000    -0.166472   
N37      N      0.799070000000     0.508970000000     0.988980000000    -0.0919164  
N38      N      0.769770000000     0.454200000000     0.183190000000    -0.0927875  
N39      N      0.865210000000     0.455450000000     0.734640000000    -0.166504   
N40      N      0.865230000000     0.455460000000     0.937400000000    -0.166457   
N41      N      0.703410000000     0.507480000000     0.437430000000    -0.166556   
N42      N      0.703470000000     0.507550000000     0.234670000000    -0.16645    
N43      N      0.604570000000     0.479900000000     0.577130000000    -0.16613    
N44      N      0.964120000000     0.483020000000     0.595010000000    -0.166154   
N45      N      0.825930000000     0.341350000000     0.588020000000    -0.166485   
N46      N      0.742760000000     0.621610000000     0.584010000000    -0.166454   
N47      N      0.798990000000     0.508880000000     0.683130000000    -0.0927713  
N48      N      0.769700000000     0.454090000000     0.488900000000    -0.0927939  
N49      N      0.964170000000     0.982880000000     0.077030000000    -0.166381   
N50      N      0.604620000000     0.979950000000     0.094970000000    -0.166137   
N51      N      0.742810000000     0.121670000000     0.088130000000    -0.166487   
N52      N      0.825980000000     0.841420000000     0.084040000000    -0.166493   
N53      N      0.799080000000     0.008980000000     0.988990000000    -0.0917606  
N54      N      0.769760000000     0.954180000000     0.183190000000    -0.0927385  
N55      N      0.865220000000     0.955480000000     0.734640000000    -0.166552   
N56      N      0.865240000000     0.955480000000     0.937400000000    -0.166437   
N57      N      0.703410000000     0.007460000000     0.437430000000    -0.16646    
N58      N      0.703470000000     0.007530000000     0.234670000000    -0.166443   
N59      N      0.604570000000     0.979890000000     0.577130000000    -0.16619    
N60      N      0.964120000000     0.983030000000     0.595000000000    -0.166332   
N61      N      0.825930000000     0.841360000000     0.588040000000    -0.166437   
N62      N      0.742750000000     0.121610000000     0.584000000000    -0.166463   
N63      N      0.798990000000     0.008890000000     0.683130000000    -0.0926129  
N64      N      0.769690000000     0.954080000000     0.488900000000    -0.0927347  
O1       O      0.208370000000     0.468690000000     0.610880000000    -0.481526   
O2       O      0.189630000000     0.422730000000     0.565030000000    -0.480031   
O3       O      0.152340000000     0.504720000000     0.595450000000    -0.49314    
O4       O      0.198180000000     0.569660000000     0.580530000000    -0.492664   
O5       O      0.208160000000     0.476130000000     0.498730000000    -0.492173   
O6       O      0.234890000000     0.547350000000     0.563620000000    -0.504151   
O7       O      0.142390000000     0.469740000000     0.540020000000    -0.500454   
O8       O      0.186000000000     0.527800000000     0.496130000000    -0.506421   
O9       O      0.360310000000     0.494150000000     0.561330000000    -0.481499   
O10      O      0.379020000000     0.540150000000     0.607170000000    -0.47996    
O11      O      0.370510000000     0.393210000000     0.591750000000    -0.492724   
O12      O      0.416340000000     0.458130000000     0.576770000000    -0.493141   
O13      O      0.360530000000     0.486760000000     0.673500000000    -0.492188   
O14      O      0.426310000000     0.493220000000     0.632140000000    -0.500535   
O15      O      0.333810000000     0.415520000000     0.608660000000    -0.504429   
O16      O      0.382750000000     0.435170000000     0.676120000000    -0.506448   
O17      O      0.360390000000     0.494310000000     0.110890000000    -0.481382   
O18      O      0.379090000000     0.540270000000     0.065040000000    -0.480054   
O19      O      0.416410000000     0.458250000000     0.095420000000    -0.492965   
O20      O      0.370570000000     0.393340000000     0.080460000000    -0.492597   
O21      O      0.360570000000     0.486840000000     0.998720000000    -0.491732   
O22      O      0.333860000000     0.415660000000     0.063570000000    -0.50411    
O23      O      0.426360000000     0.493330000000     0.040050000000    -0.500682   
O24      O      0.382790000000     0.435250000000     0.996090000000    -0.505895   
O25      O      0.208460000000     0.468840000000     0.061410000000    -0.481639   
O26      O      0.189680000000     0.422870000000     0.107210000000    -0.480014   
O27      O      0.198230000000     0.569810000000     0.091780000000    -0.492901   
O28      O      0.152400000000     0.504790000000     0.076780000000    -0.493351   
O29      O      0.208220000000     0.476260000000     0.173520000000    -0.492242   
O30      O      0.142450000000     0.469940000000     0.132250000000    -0.50053    
O31      O      0.234940000000     0.547510000000     0.108660000000    -0.504319   
O32      O      0.186070000000     0.527940000000     0.176160000000    -0.506423   
O33      O      0.208370000000     0.968690000000     0.610880000000    -0.481615   
O34      O      0.189640000000     0.922720000000     0.565040000000    -0.479977   
O35      O      0.152340000000     0.004720000000     0.595450000000    -0.492766   
O36      O      0.198180000000     0.069660000000     0.580520000000    -0.492433   
O37      O      0.208160000000     0.976120000000     0.498740000000    -0.492478   
O38      O      0.234890000000     0.047340000000     0.563610000000    -0.503913   
O39      O      0.142390000000     0.969720000000     0.540030000000    -0.500499   
O40      O      0.186000000000     0.027780000000     0.496130000000    -0.506397   
O41      O      0.360320000000     0.994150000000     0.561320000000    -0.481785   
O42      O      0.379020000000     0.040150000000     0.607160000000    -0.480028   
O43      O      0.370510000000     0.893210000000     0.591760000000    -0.492626   
O44      O      0.416340000000     0.958130000000     0.576770000000    -0.49303    
O45      O      0.360540000000     0.986770000000     0.673490000000    -0.492406   
O46      O      0.426320000000     0.993250000000     0.632140000000    -0.500299   
O47      O      0.333810000000     0.915530000000     0.608670000000    -0.504359   
O48      O      0.382770000000     0.935190000000     0.676120000000    -0.506251   
O49      O      0.360390000000     0.994310000000     0.110900000000    -0.481542   
O50      O      0.379090000000     0.040280000000     0.065050000000    -0.479963   
O51      O      0.416410000000     0.958260000000     0.095420000000    -0.493055   
O52      O      0.370570000000     0.893350000000     0.080450000000    -0.492754   
O53      O      0.360580000000     0.986860000000     0.998720000000    -0.491794   
O54      O      0.333870000000     0.915660000000     0.063560000000    -0.504534   
O55      O      0.426370000000     0.993350000000     0.040060000000    -0.500636   
O56      O      0.382800000000     0.935270000000     0.996090000000    -0.505963   
O57      O      0.208460000000     0.968840000000     0.061410000000    -0.481617   
O58      O      0.189680000000     0.922860000000     0.107210000000    -0.479903   
O59      O      0.198230000000     0.069810000000     0.091790000000    -0.49266    
O60      O      0.152400000000     0.004790000000     0.076780000000    -0.492978   
O61      O      0.208210000000     0.976250000000     0.173520000000    -0.492578   
O62      O      0.142440000000     0.969930000000     0.132240000000    -0.500476   
O63      O      0.234940000000     0.047500000000     0.108670000000    -0.504132   
O64      O      0.186060000000     0.027920000000     0.176160000000    -0.506338   
O65      O      0.708370000000     0.468760000000     0.610810000000    -0.481655   
O66      O      0.689650000000     0.422770000000     0.564970000000    -0.479999   
O67      O      0.652350000000     0.504800000000     0.595370000000    -0.493146   
O68      O      0.698180000000     0.569710000000     0.580410000000    -0.492663   
O69      O      0.708160000000     0.476170000000     0.498650000000    -0.492318   
O70      O      0.734880000000     0.547390000000     0.563500000000    -0.504363   
O71      O      0.642380000000     0.469700000000     0.540000000000    -0.500432   
O72      O      0.685940000000     0.527760000000     0.496040000000    -0.506535   
O73      O      0.860300000000     0.494200000000     0.561280000000    -0.481512   
O74      O      0.879060000000     0.540190000000     0.607100000000    -0.48001    
O75      O      0.870500000000     0.393250000000     0.591630000000    -0.492623   
O76      O      0.916350000000     0.458190000000     0.576710000000    -0.492994   
O77      O      0.860540000000     0.486830000000     0.673420000000    -0.492256   
O78      O      0.926300000000     0.493170000000     0.632140000000    -0.500399   
O79      O      0.833800000000     0.415560000000     0.608550000000    -0.504389   
O80      O      0.882660000000     0.435110000000     0.676030000000    -0.506463   
O81      O      0.860330000000     0.494300000000     0.110710000000    -0.481381   
O82      O      0.879220000000     0.540270000000     0.064960000000    -0.480073   
O83      O      0.916400000000     0.458210000000     0.095350000000    -0.492991   
O84      O      0.870560000000     0.393310000000     0.080440000000    -0.492637   
O85      O      0.860590000000     0.486860000000     0.998630000000    -0.491703   
O86      O      0.833860000000     0.415600000000     0.063480000000    -0.504276   
O87      O      0.926360000000     0.493060000000     0.039870000000    -0.500516   
O88      O      0.882690000000     0.435120000000     0.995990000000    -0.505856   
O89      O      0.708430000000     0.468820000000     0.061260000000    -0.481557   
O90      O      0.689720000000     0.422840000000     0.107090000000    -0.479918   
O91      O      0.698240000000     0.569760000000     0.091680000000    -0.492807   
O92      O      0.652400000000     0.504850000000     0.076720000000    -0.492991   
O93      O      0.708220000000     0.476240000000     0.173430000000    -0.492241   
O94      O      0.642440000000     0.469770000000     0.132090000000    -0.500368   
O95      O      0.734940000000     0.547470000000     0.108620000000    -0.504454   
O96      O      0.686000000000     0.527840000000     0.176060000000    -0.506362   
O97      O      0.708370000000     0.968750000000     0.610820000000    -0.481499   
O98      O      0.689660000000     0.922760000000     0.564980000000    -0.479996   
O99      O      0.652350000000     0.004800000000     0.595370000000    -0.492796   
O100     O      0.698180000000     0.069700000000     0.580410000000    -0.492521   
O101     O      0.708160000000     0.976170000000     0.498650000000    -0.492452   
O102     O      0.734880000000     0.047390000000     0.563490000000    -0.504077   
O103     O      0.642370000000     0.969690000000     0.540010000000    -0.500485   
O104     O      0.685930000000     0.027750000000     0.496040000000    -0.506305   
O105     O      0.860300000000     0.994210000000     0.561270000000    -0.481675   
O106     O      0.879050000000     0.040200000000     0.607090000000    -0.479929   
O107     O      0.870510000000     0.893260000000     0.591640000000    -0.49243    
O108     O      0.916350000000     0.958190000000     0.576710000000    -0.493143   
O109     O      0.860550000000     0.986840000000     0.673420000000    -0.49243    
O110     O      0.926300000000     0.993190000000     0.632130000000    -0.500608   
O111     O      0.833800000000     0.915570000000     0.608560000000    -0.504162   
O112     O      0.882670000000     0.935130000000     0.676030000000    -0.506545   
O113     O      0.860340000000     0.994300000000     0.110720000000    -0.481621   
O114     O      0.879220000000     0.040270000000     0.064970000000    -0.480051   
O115     O      0.916400000000     0.958220000000     0.095350000000    -0.493021   
O116     O      0.870560000000     0.893320000000     0.080430000000    -0.492694   
O117     O      0.860600000000     0.986870000000     0.998630000000    -0.491931   
O118     O      0.833860000000     0.915610000000     0.063480000000    -0.504264   
O119     O      0.926370000000     0.993080000000     0.039880000000    -0.500433   
O120     O      0.882710000000     0.935140000000     0.995990000000    -0.505748   
O121     O      0.708430000000     0.968820000000     0.061260000000    -0.481692   
O122     O      0.689720000000     0.922830000000     0.107080000000    -0.47996    
O123     O      0.698240000000     0.069760000000     0.091690000000    -0.49257    
O124     O      0.652400000000     0.004850000000     0.076730000000    -0.492804   
O125     O      0.708220000000     0.976230000000     0.173430000000    -0.492465   
O126     O      0.642440000000     0.969750000000     0.132080000000    -0.500334   
O127     O      0.734940000000     0.047460000000     0.108630000000    -0.504203   
O128     O      0.686000000000     0.027820000000     0.176060000000    -0.506442   


