data_structure

_audit_creation_method RASPA-1.0
_audit_creation_date 2023-5-23
_audit_author_name 'Poobodin Mano'

_cell_length_a    64.7557
_cell_length_b    64.7535
_cell_length_c    64.763
_cell_angle_alpha 90.3285
_cell_angle_beta  89.8393
_cell_angle_gamma 89.5067
_cell_volume      271546

_symmetry_cell_setting          triclinic
_symmetry_space_group_name_Hall 'P 1'
_symmetry_space_group_name_H-M  'P 1'
_symmetry_Int_Tables_number     1

_symmetry_equiv_pos_as_xyz 'x,y,z'

loop_
_atom_site_label
_atom_site_type_symbol
_atom_site_fract_x
_atom_site_fract_y
_atom_site_fract_z
_atom_site_charge
C1       C      0.079890000000     0.333290000000     0.904040000000     0.406273   
C2       C      0.154370000000     0.331300000000     0.901990000000     0.405684   
C3       C      0.119720000000     0.331960000000     0.955540000000     0.4021     
C4       C      0.114840000000     0.279770000000     0.903210000000     0.402084   
C5       C      0.141210000000     0.377410000000     0.167080000000     0.405988   
C6       C      0.138980000000     0.379680000000     0.092800000000     0.405747   
C7       C      0.140520000000     0.431210000000     0.132980000000     0.402192   
C8       C      0.192750000000     0.378890000000     0.127080000000     0.401939   
C9       C      0.080300000000     0.833160000000     0.105340000000     0.405583   
C10      C      0.154790000000     0.831160000000     0.107540000000     0.405833   
C11      C      0.115290000000     0.779730000000     0.106180000000     0.402355   
C12      C      0.120430000000     0.831680000000     0.053970000000     0.401968   
C13      C      0.092580000000     0.568850000000     0.151970000000     0.405771   
C14      C      0.094990000000     0.643250000000     0.154100000000     0.405344   
C15      C      0.041250000000     0.609300000000     0.153580000000     0.402292   
C16      C      0.093520000000     0.603610000000     0.205520000000     0.402403   
C17      C      0.094720000000     0.318420000000     0.355620000000     0.405343   
C18      C      0.092770000000     0.392940000000     0.357580000000     0.405538   
C19      C      0.093450000000     0.358070000000     0.304120000000     0.401793   
C20      C      0.041260000000     0.353420000000     0.356390000000     0.402406   
C21      C      0.330290000000     0.330860000000     0.107960000000     0.405757   
C22      C      0.404690000000     0.333310000000     0.105760000000     0.405006   
C23      C      0.370770000000     0.279580000000     0.106340000000     0.402467   
C24      C      0.364880000000     0.331770000000     0.054410000000     0.402581   
C25      C      0.829600000000     0.629580000000     0.107750000000     0.40543    
C26      C      0.904070000000     0.627610000000     0.105630000000     0.405818   
C27      C      0.864200000000     0.628950000000     0.054150000000     0.402407   
C28      C      0.869100000000     0.681120000000     0.106490000000     0.402007   
C29      C      0.639140000000     0.080840000000     0.917110000000     0.405769   
C30      C      0.641350000000     0.083210000000     0.842690000000     0.405711   
C31      C      0.692670000000     0.081680000000     0.882510000000     0.402567   
C32      C      0.640750000000     0.029560000000     0.876800000000     0.402421   
C33      C      0.592460000000     0.068820000000     0.652460000000     0.405996   
C34      C      0.594840000000     0.143220000000     0.654580000000     0.405497   
C35      C      0.541110000000     0.109270000000     0.654070000000     0.402433   
C36      C      0.593370000000     0.103580000000     0.706010000000     0.402156   
C37      C      0.403950000000     0.127710000000     0.606080000000     0.405314   
C38      C      0.329470000000     0.129680000000     0.608110000000     0.405614   
C39      C      0.368980000000     0.181220000000     0.606890000000     0.40207    
C40      C      0.364150000000     0.129020000000     0.554570000000     0.402437   
C41      C      0.094650000000     0.818800000000     0.654190000000     0.405622   
C42      C      0.092610000000     0.893250000000     0.651910000000     0.405529   
C43      C      0.041170000000     0.853750000000     0.653290000000     0.402226   
C44      C      0.093130000000     0.859090000000     0.705550000000     0.402004   
C45      C      0.638880000000     0.879720000000     0.593060000000     0.406209   
C46      C      0.641130000000     0.877380000000     0.667350000000     0.405479   
C47      C      0.692650000000     0.878900000000     0.627300000000     0.402118   
C48      C      0.640410000000     0.931200000000     0.633300000000     0.402488   
C49      C      0.594650000000     0.818270000000     0.855870000000     0.405974   
C50      C      0.592700000000     0.892780000000     0.857880000000     0.405861   
C51      C      0.593390000000     0.857950000000     0.804380000000     0.402126   
C52      C      0.541190000000     0.853270000000     0.856630000000     0.40212    
C53      C      0.891540000000     0.892470000000     0.151890000000     0.405502   
C54      C      0.889100000000     0.818190000000     0.154260000000     0.405438   
C55      C      0.942940000000     0.852080000000     0.153540000000     0.402665   
C56      C      0.890720000000     0.858400000000     0.205680000000     0.40259    
C57      C      0.595030000000     0.642750000000     0.355670000000     0.405583   
C58      C      0.592590000000     0.568470000000     0.358050000000     0.406168   
C59      C      0.541190000000     0.608850000000     0.356390000000     0.402566   
C60      C      0.593410000000     0.602530000000     0.304250000000     0.402371   
C61      C      0.641070000000     0.377550000000     0.343110000000     0.406013   
C62      C      0.638970000000     0.379580000000     0.417540000000     0.405678   
C63      C      0.692600000000     0.378890000000     0.382930000000     0.402308   
C64      C      0.640270000000     0.431150000000     0.377900000000     0.402119   
C65      C      0.641590000000     0.583170000000     0.166990000000     0.405561   
C66      C      0.639310000000     0.581030000000     0.092510000000     0.405374   
C67      C      0.692890000000     0.581630000000     0.126820000000     0.402152   
C68      C      0.640760000000     0.529690000000     0.132220000000     0.402438   
C69      C      0.594780000000     0.318830000000     0.154640000000     0.40607    
C70      C      0.592750000000     0.393280000000     0.152350000000     0.405452   
C71      C      0.541290000000     0.353770000000     0.153710000000     0.402254   
C72      C      0.593230000000     0.359120000000     0.206000000000     0.402489   
C73      C      0.842510000000     0.877800000000     0.342930000000     0.405619   
C74      C      0.844740000000     0.879930000000     0.417410000000     0.405477   
C75      C      0.843320000000     0.931270000000     0.377720000000     0.402233   
C76      C      0.791190000000     0.879330000000     0.383080000000     0.402678   
C77      C      0.391500000000     0.892120000000     0.357910000000     0.405498   
C78      C      0.389110000000     0.817720000000     0.355770000000     0.405315   
C79      C      0.390570000000     0.857360000000     0.304350000000     0.402482   
C80      C      0.442840000000     0.851670000000     0.356290000000     0.402245   
C81      C      0.580020000000     0.833330000000     0.404260000000     0.406007   
C82      C      0.654490000000     0.831380000000     0.402160000000     0.405941   
C83      C      0.619860000000     0.832010000000     0.455750000000     0.402055   
C84      C      0.615000000000     0.779830000000     0.403420000000     0.401968   
C85      C      0.388920000000     0.318300000000     0.654640000000     0.4056     
C86      C      0.391360000000     0.392570000000     0.652260000000     0.405212   
C87      C      0.390570000000     0.358510000000     0.706060000000     0.402097   
C88      C      0.442770000000     0.352180000000     0.653910000000     0.402317   
C89      C      0.580130000000     0.333140000000     0.605740000000     0.405832   
C90      C      0.654620000000     0.331090000000     0.607920000000     0.405307   
C91      C      0.615090000000     0.279690000000     0.606600000000     0.402342   
C92      C      0.620250000000     0.331650000000     0.554390000000     0.402493   
C93      C      0.153880000000     0.629800000000     0.607750000000     0.405491   
C94      C      0.079600000000     0.627400000000     0.605470000000     0.405575   
C95      C      0.113500000000     0.681250000000     0.606130000000     0.402725   
C96      C      0.119630000000     0.628970000000     0.553980000000     0.402061   
C97      C      0.139270000000     0.580970000000     0.416620000000     0.405538   
C98      C      0.141550000000     0.583370000000     0.342200000000     0.405628   
C99      C      0.192850000000     0.581810000000     0.382080000000     0.402367   
C100     C      0.140910000000     0.529710000000     0.376290000000     0.402374   
C101     C      0.403820000000     0.627780000000     0.404570000000     0.40573    
C102     C      0.329340000000     0.629830000000     0.402330000000     0.405472   
C103     C      0.363670000000     0.629280000000     0.455920000000     0.402562   
C104     C      0.368860000000     0.681230000000     0.403720000000     0.402043   
C105     C      0.342800000000     0.583470000000     0.667220000000     0.405634   
C106     C      0.344930000000     0.581420000000     0.592790000000     0.406146   
C107     C      0.343620000000     0.529880000000     0.632460000000     0.402438   
C108     C      0.291280000000     0.582140000000     0.627370000000     0.401935   
C109     C      0.138950000000     0.879560000000     0.917080000000     0.405606   
C110     C      0.141040000000     0.877520000000     0.842650000000     0.405595   
C111     C      0.140230000000     0.931110000000     0.877420000000     0.401652   
C112     C      0.192570000000     0.878840000000     0.882480000000     0.402112   
C113     C      0.342430000000     0.377810000000     0.843340000000     0.405642   
C114     C      0.344680000000     0.379900000000     0.917820000000     0.405013   
C115     C      0.343240000000     0.431270000000     0.878150000000     0.402348   
C116     C      0.291110000000     0.379340000000     0.883470000000     0.402197   
C117     C      0.329960000000     0.831160000000     0.902100000000     0.405937   
C118     C      0.404250000000     0.833540000000     0.904390000000     0.405606   
C119     C      0.364210000000     0.831980000000     0.955870000000     0.40235    
C120     C      0.370330000000     0.779700000000     0.903720000000     0.402264   
C121     C      0.389150000000     0.642150000000     0.855680000000     0.405702   
C122     C      0.391200000000     0.567700000000     0.857990000000     0.405341   
C123     C      0.390690000000     0.601840000000     0.804330000000     0.402215   
C124     C      0.442640000000     0.607200000000     0.856610000000     0.402407   
C125     C      0.903660000000     0.127860000000     0.904360000000     0.405374   
C126     C      0.829170000000     0.129870000000     0.902230000000     0.405519   
C127     C      0.863570000000     0.129330000000     0.955740000000     0.402026   
C128     C      0.868680000000     0.181290000000     0.903530000000     0.402672   
C129     C      0.653650000000     0.629980000000     0.902290000000     0.405977   
C130     C      0.579260000000     0.627530000000     0.904560000000     0.405816   
C131     C      0.619100000000     0.629090000000     0.955900000000     0.4027     
C132     C      0.613190000000     0.681270000000     0.903970000000     0.402475   
C133     C      0.830150000000     0.830950000000     0.607650000000     0.406128   
C134     C      0.904540000000     0.833380000000     0.605380000000     0.40533    
C135     C      0.870610000000     0.779650000000     0.605970000000     0.40221    
C136     C      0.864710000000     0.831830000000     0.554040000000     0.40201    
C137     C      0.889210000000     0.642660000000     0.654060000000     0.405598   
C138     C      0.891160000000     0.568140000000     0.652070000000     0.405862   
C139     C      0.942670000000     0.607660000000     0.653280000000     0.402406   
C140     C      0.890470000000     0.602990000000     0.705540000000     0.402242   
C141     C      0.842700000000     0.583620000000     0.842570000000     0.405607   
C142     C      0.844960000000     0.581290000000     0.916860000000     0.405689   
C143     C      0.791180000000     0.582100000000     0.882620000000     0.402634   
C144     C      0.843410000000     0.529800000000     0.876640000000     0.402216   
C145     C      0.888980000000     0.317760000000     0.855570000000     0.406163   
C146     C      0.891380000000     0.392170000000     0.857670000000     0.405436   
C147     C      0.942720000000     0.351700000000     0.856070000000     0.402576   
C148     C      0.890460000000     0.357390000000     0.804140000000     0.402578   
C149     C      0.830050000000     0.331140000000     0.401980000000     0.405775   
C150     C      0.904340000000     0.333550000000     0.404190000000     0.405781   
C151     C      0.864340000000     0.332000000000     0.455700000000     0.402151   
C152     C      0.870460000000     0.279700000000     0.403550000000     0.402364   
C153     C      0.844690000000     0.380060000000     0.593030000000     0.40544    
C154     C      0.842460000000     0.377710000000     0.667460000000     0.405421   
C155     C      0.843070000000     0.431350000000     0.633330000000     0.402495   
C156     C      0.791140000000     0.379240000000     0.627630000000     0.402684   
C157     C      0.344820000000     0.880050000000     0.093240000000     0.40578    
C158     C      0.342570000000     0.877650000000     0.167670000000     0.405724   
C159     C      0.343190000000     0.931310000000     0.133580000000     0.402635   
C160     C      0.291260000000     0.879200000000     0.127800000000     0.402139   
C161     C      0.889310000000     0.142150000000     0.355510000000     0.40602    
C162     C      0.891360000000     0.067710000000     0.357790000000     0.405321   
C163     C      0.890870000000     0.101850000000     0.304140000000     0.402404   
C164     C      0.942810000000     0.107220000000     0.356410000000     0.402721   
C165     C      0.094850000000     0.142700000000     0.855440000000     0.40594    
C166     C      0.092430000000     0.068420000000     0.857790000000     0.40591    
C167     C      0.041020000000     0.108800000000     0.856160000000     0.402836   
C168     C      0.093220000000     0.102490000000     0.804010000000     0.40271    
C169     C      0.153820000000     0.130140000000     0.402120000000     0.405875   
C170     C      0.079420000000     0.127710000000     0.404320000000     0.40536    
C171     C      0.119220000000     0.129250000000     0.455670000000     0.402684   
C172     C      0.113360000000     0.181440000000     0.403730000000     0.402301   
C173     C      0.141400000000     0.083150000000     0.666750000000     0.405884   
C174     C      0.139200000000     0.081070000000     0.592270000000     0.405439   
C175     C      0.192730000000     0.081630000000     0.626650000000     0.402671   
C176     C      0.140610000000     0.029690000000     0.631920000000     0.402219   
C177     C      0.843010000000     0.083370000000     0.167040000000     0.405623   
C178     C      0.845080000000     0.081370000000     0.092610000000     0.405908   
C179     C      0.843810000000     0.029790000000     0.132230000000     0.402377   
C180     C      0.791470000000     0.082060000000     0.127250000000     0.402376   
C181     C      0.654030000000     0.129830000000     0.108180000000     0.405781   
C182     C      0.579740000000     0.127430000000     0.105960000000     0.405531   
C183     C      0.613640000000     0.181270000000     0.106600000000     0.402126   
C184     C      0.619740000000     0.128970000000     0.054460000000     0.402401   
C185     C      0.342880000000     0.083560000000     0.343010000000     0.405547   
C186     C      0.345100000000     0.081250000000     0.417290000000     0.405978   
C187     C      0.291350000000     0.082060000000     0.383010000000     0.402358   
C188     C      0.343580000000     0.029740000000     0.377080000000     0.40244    
C189     C      0.389350000000     0.142590000000     0.154460000000     0.405872   
C190     C      0.391290000000     0.068080000000     0.152480000000     0.40559    
C191     C      0.442810000000     0.107590000000     0.153710000000     0.402183   
C192     C      0.390620000000     0.102930000000     0.205970000000     0.401834   
C193     C      0.396670000000     0.105130000000     0.244030000000    -0.020635   
C194     C      0.336080000000     0.087850000000     0.305600000000    -0.0204095  
C195     C      0.369880000000     0.096830000000     0.319000000000    -0.0205225  
C196     C      0.369660000000     0.098100000000     0.296080000000     0.0138069  
C197     C      0.350310000000     0.093100000000     0.288540000000     0.0143512  
C198     C      0.346260000000     0.092410000000     0.267340000000    -0.0650815  
C199     C      0.362470000000     0.096820000000     0.231180000000    -0.0201037  
C200     C      0.386140000000     0.102500000000     0.282720000000    -0.0643846  
C201     C      0.362620000000     0.097000000000     0.254030000000     0.0142891  
C202     C      0.382070000000     0.101820000000     0.261450000000     0.0139153  
C203     C      0.467980000000     0.113790000000     0.125540000000    -0.020272   
C204     C      0.555810000000     0.113980000000     0.132930000000    -0.0205161  
C205     C      0.542350000000     0.123110000000     0.099160000000    -0.0204254  
C206     C      0.525320000000     0.117730000000     0.113380000000     0.0143922  
C207     C      0.532900000000     0.112650000000     0.132710000000     0.0137993  
C208     C      0.519570000000     0.108130000000     0.149180000000    -0.0643635  
C209     C      0.480890000000     0.105350000000     0.159720000000    -0.0206422  
C210     C      0.504110000000     0.118380000000     0.109330000000    -0.0652769  
C211     C      0.498290000000     0.108770000000     0.145120000000     0.0138666  
C212     C      0.490830000000     0.113660000000     0.125690000000     0.0143938  
C213     C      0.678280000000     0.102900000000     0.121570000000    -0.02063    
C214     C      0.766080000000     0.110180000000     0.120910000000    -0.0201135  
C215     C      0.753450000000     0.076060000000     0.129620000000    -0.0205202  
C216     C      0.735940000000     0.090660000000     0.126280000000     0.0138972  
C217     C      0.743230000000     0.110060000000     0.121240000000     0.0142709  
C218     C      0.729800000000     0.126420000000     0.116580000000    -0.0651261  
C219     C      0.691440000000     0.136630000000     0.112200000000    -0.020266   
C220     C      0.714690000000     0.086630000000     0.127140000000    -0.0643762  
C221     C      0.708630000000     0.122400000000     0.117440000000     0.0142848  
C222     C      0.701210000000     0.103090000000     0.122670000000     0.0138653  
C223     C      0.135540000000     0.074460000000     0.554700000000    -0.0205093  
C224     C      0.116710000000     0.135110000000     0.493800000000    -0.0205209  
C225     C      0.126240000000     0.101120000000     0.480570000000    -0.0201659  
C226     C      0.125930000000     0.101160000000     0.503410000000     0.0143744  
C227     C      0.120410000000     0.120480000000     0.511050000000     0.013855   
C228     C      0.119450000000     0.124420000000     0.532380000000    -0.0644121  
C229     C      0.125350000000     0.108040000000     0.568480000000    -0.0205154  
C230     C      0.130970000000     0.084800000000     0.516540000000    -0.0651672  
C231     C      0.124300000000     0.107950000000     0.545550000000     0.0138386  
C232     C      0.130000000000     0.088720000000     0.537790000000     0.0144314  
C233     C      0.191320000000     0.136820000000     0.398600000000    -0.0203697  
C234     C      0.253330000000     0.076200000000     0.380350000000    -0.0204904  
C235     C      0.265970000000     0.110150000000     0.390010000000    -0.0202022  
C236     C      0.243120000000     0.110130000000     0.389490000000     0.0143603  
C237     C      0.235830000000     0.090820000000     0.383900000000     0.0138932  
C238     C      0.214580000000     0.086890000000     0.382750000000    -0.0644241  
C239     C      0.178160000000     0.103260000000     0.388340000000    -0.0206049  
C240     C      0.229700000000     0.126480000000     0.394390000000    -0.0651732  
C241     C      0.201100000000     0.103360000000     0.387470000000     0.0138624  
C242     C      0.208520000000     0.122570000000     0.393220000000     0.0143325  
C243     C      0.121280000000     0.095270000000     0.778790000000    -0.0202414  
C244     C      0.114480000000     0.096980000000     0.690950000000    -0.0206974  
C245     C      0.148010000000     0.086550000000     0.704310000000    -0.0204     
C246     C      0.133750000000     0.092000000000     0.721420000000     0.0143957  
C247     C      0.114560000000     0.097840000000     0.713900000000     0.0139036  
C248     C      0.098080000000     0.102630000000     0.727270000000    -0.0644535  
C249     C      0.087360000000     0.105100000000     0.765960000000    -0.0206018  
C250     C      0.137640000000     0.090800000000     0.742620000000    -0.0652632  
C251     C      0.101980000000     0.101440000000     0.748550000000     0.0139178  
C252     C      0.121270000000     0.095770000000     0.755950000000     0.0143901  
C253     C      0.870030000000     0.096460000000     0.191120000000    -0.0206045  
C254     C      0.862790000000     0.095510000000     0.278990000000    -0.020273   
C255     C      0.896950000000     0.104040000000     0.266070000000    -0.0206734  
C256     C      0.882340000000     0.100820000000     0.248690000000     0.0138716  
C257     C      0.862920000000     0.095880000000     0.256150000000     0.0143988  
C258     C      0.846540000000     0.091400000000     0.242860000000    -0.0652241  
C259     C      0.836270000000     0.087270000000     0.204580000000    -0.0204909  
C260     C      0.886360000000     0.101740000000     0.227400000000    -0.0644144  
C261     C      0.850550000000     0.092320000000     0.221650000000     0.0144091  
C262     C      0.869870000000     0.097450000000     0.214070000000     0.0137956  
C263     C      0.967770000000     0.114010000000     0.384560000000    -0.0197749  
C264     C      0.055660000000     0.113830000000     0.377390000000    -0.0205573  
C265     C      0.041940000000     0.123730000000     0.411030000000    -0.0202067  
C266     C      0.025010000000     0.118100000000     0.396810000000     0.0140045  
C267     C      0.032740000000     0.112570000000     0.377560000000     0.0139066  
C268     C      0.019530000000     0.107720000000     0.361100000000    -0.0638189  
C269     C      0.980940000000     0.104790000000     0.350510000000    -0.0204931  
C270     C      0.003780000000     0.118880000000     0.400800000000    -0.063563   
C271     C      0.998220000000     0.108500000000     0.365110000000     0.0134921  
C272     C      0.990620000000     0.113840000000     0.384470000000     0.0133796  
C273     C      0.371280000000     0.956260000000     0.140240000000    -0.0205019  
C274     C      0.364250000000     0.044190000000     0.139200000000    -0.02033    
C275     C      0.397930000000     0.030460000000     0.148740000000    -0.0208991  
C276     C      0.383640000000     0.013500000000     0.143550000000     0.01568    
C277     C      0.364360000000     0.021240000000     0.138230000000     0.0131146  
C278     C      0.347850000000     0.008040000000     0.133780000000    -0.0630812  
C279     C      0.337190000000     0.969440000000     0.131360000000    -0.0201411  
C280     C      0.387600000000     0.992260000000     0.144530000000    -0.0666404  
C281     C      0.351820000000     0.986710000000     0.134750000000     0.0125495  
C282     C      0.371200000000     0.979100000000     0.139890000000     0.015043   
C283     C      0.867970000000     0.241680000000     0.409480000000    -0.0204561  
C284     C      0.885810000000     0.179690000000     0.348840000000    -0.0203342  
C285     C      0.875720000000     0.166510000000     0.382420000000    -0.0205363  
C286     C      0.874880000000     0.189470000000     0.382320000000     0.013799   
C287     C      0.880530000000     0.196890000000     0.363100000000     0.0142936  
C288     C      0.881710000000     0.218080000000     0.359180000000    -0.0652087  
C289     C      0.877450000000     0.254330000000     0.375510000000    -0.0201021  
C290     C      0.870280000000     0.202930000000     0.398800000000    -0.064397   
C291     C      0.876930000000     0.231490000000     0.375540000000     0.0143344  
C292     C      0.871450000000     0.224190000000     0.394870000000     0.0138082  
C293     C      0.848200000000     0.386720000000     0.555520000000    -0.0202986  
C294     C      0.866970000000     0.326150000000     0.493740000000    -0.0205933  
C295     C      0.857170000000     0.360080000000     0.480980000000    -0.0202174  
C296     C      0.857620000000     0.360060000000     0.503820000000     0.0143306  
C297     C      0.863290000000     0.340760000000     0.511180000000     0.0138705  
C298     C      0.864400000000     0.336830000000     0.532450000000    -0.0644339  
C299     C      0.858610000000     0.353190000000     0.568810000000    -0.0205595  
C300     C      0.852590000000     0.376400000000     0.517190000000    -0.0652079  
C301     C      0.859540000000     0.353290000000     0.545860000000     0.0138003  
C302     C      0.853710000000     0.372490000000     0.538380000000     0.0143195  
C303     C      0.862320000000     0.364370000000     0.779160000000    -0.0203159  
C304     C      0.869380000000     0.363760000000     0.691280000000    -0.0206683  
C305     C      0.835780000000     0.373910000000     0.704970000000    -0.0203758  
C306     C      0.850000000000     0.368280000000     0.721920000000     0.014363   
C307     C      0.869230000000     0.362600000000     0.714200000000     0.0138145  
C308     C      0.885690000000     0.357710000000     0.727420000000    -0.0643917  
C309     C      0.896330000000     0.354860000000     0.766020000000    -0.0205144  
C310     C      0.846050000000     0.369190000000     0.743150000000    -0.0652358  
C311     C      0.881720000000     0.358610000000     0.748730000000     0.013799   
C312     C      0.862390000000     0.364110000000     0.756320000000     0.0144051  
C313     C      0.871470000000     0.504370000000     0.869680000000    -0.0202278  
C314     C      0.864500000000     0.416570000000     0.871320000000    -0.0205801  
C315     C      0.898090000000     0.429670000000     0.861220000000    -0.0203874  
C316     C      0.883850000000     0.446900000000     0.866540000000     0.0143407  
C317     C      0.864620000000     0.439520000000     0.872190000000     0.0138134  
C318     C      0.848150000000     0.453020000000     0.876830000000    -0.0644265  
C319     C      0.837490000000     0.491790000000     0.879180000000    -0.02056    
C320     C      0.887780000000     0.468070000000     0.865380000000    -0.0652343  
C321     C      0.852100000000     0.474270000000     0.875680000000     0.0138703  
C322     C      0.871420000000     0.481530000000     0.870190000000     0.0143352  
C323     C      0.896510000000     0.605190000000     0.743610000000    -0.0205397  
C324     C      0.835900000000     0.587910000000     0.805160000000    -0.0205255  
C325     C      0.869700000000     0.596900000000     0.818570000000    -0.0205957  
C326     C      0.869480000000     0.598170000000     0.795660000000     0.0137733  
C327     C      0.850140000000     0.593160000000     0.788100000000     0.0144114  
C328     C      0.846090000000     0.592460000000     0.766900000000    -0.0652645  
C329     C      0.862310000000     0.596880000000     0.730750000000    -0.0202126  
C330     C      0.885960000000     0.602570000000     0.782300000000    -0.0643853  
C331     C      0.862460000000     0.597060000000     0.753600000000     0.0143727  
C332     C      0.881900000000     0.601880000000     0.761020000000     0.0137953  
C333     C      0.897800000000     0.530520000000     0.648360000000    -0.0202944  
C334     C      0.837070000000     0.469480000000     0.631050000000    -0.0205984  
C335     C      0.871150000000     0.456300000000     0.639960000000    -0.0201424  
C336     C      0.871080000000     0.479150000000     0.639570000000     0.0143024  
C337     C      0.851700000000     0.486750000000     0.634410000000     0.0138658  
C338     C      0.847730000000     0.508070000000     0.633410000000    -0.0643908  
C339     C      0.864130000000     0.544230000000     0.638790000000    -0.0205308  
C340     C      0.887470000000     0.492310000000     0.644200000000    -0.0652122  
C341     C      0.864230000000     0.521280000000     0.637860000000     0.0137698  
C342     C      0.883510000000     0.513550000000     0.643200000000     0.0143149  
C343     C      0.868310000000     0.741550000000     0.599980000000    -0.0206278  
C344     C      0.885580000000     0.680270000000     0.660700000000    -0.0203556  
C345     C      0.875910000000     0.666690000000     0.627050000000    -0.0206391  
C346     C      0.875040000000     0.689650000000     0.627150000000     0.0138413  
C347     C      0.880440000000     0.697300000000     0.646410000000     0.0142798  
C348     C      0.881510000000     0.718530000000     0.650350000000    -0.0651453  
C349     C      0.877330000000     0.754600000000     0.634030000000    -0.0201569  
C350     C      0.870590000000     0.702920000000     0.610650000000    -0.0644984  
C351     C      0.876890000000     0.731760000000     0.633960000000     0.0142843  
C352     C      0.871670000000     0.724230000000     0.614600000000     0.013893   
C353     C      0.691130000000     0.636700000000     0.898670000000    -0.020351   
C354     C      0.753160000000     0.576200000000     0.880060000000    -0.0204938  
C355     C      0.765780000000     0.610160000000     0.889690000000    -0.0201747  
C356     C      0.742940000000     0.610100000000     0.889280000000     0.0143521  
C357     C      0.735650000000     0.590790000000     0.883710000000     0.0138305  
C358     C      0.714400000000     0.586830000000     0.882650000000    -0.0643388  
C359     C      0.677980000000     0.603130000000     0.888430000000    -0.0204582  
C360     C      0.729510000000     0.626430000000     0.894260000000    -0.0651945  
C361     C      0.700920000000     0.603270000000     0.887460000000     0.0137737  
C362     C      0.708330000000     0.622480000000     0.893190000000     0.0143476  
C363     C      0.857370000000     0.101210000000     0.980780000000    -0.0201283  
C364     C      0.858150000000     0.108420000000     0.068670000000    -0.0205178  
C365     C      0.849070000000     0.074650000000     0.055060000000    -0.0203638  
C366     C      0.854130000000     0.088930000000     0.038060000000     0.0143476  
C367     C      0.859190000000     0.108270000000     0.045730000000     0.013738   
C368     C      0.863450000000     0.124780000000     0.032470000000    -0.0643053  
C369     C      0.865770000000     0.135390000000     0.993840000000    -0.0203229  
C370     C      0.853260000000     0.084930000000     0.016830000000    -0.0651839  
C371     C      0.862580000000     0.120760000000     0.011160000000     0.0136434  
C372     C      0.857710000000     0.101330000000     0.003620000000     0.0143087  
C373     C      0.884890000000     0.280270000000     0.848870000000    -0.0204119  
C374     C      0.866340000000     0.219450000000     0.909460000000    -0.0206816  
C375     C      0.875260000000     0.206180000000     0.875360000000    -0.0201653  
C376     C      0.875120000000     0.229030000000     0.875460000000     0.0142818  
C377     C      0.869950000000     0.236690000000     0.894850000000     0.0139195  
C378     C      0.869250000000     0.258010000000     0.898870000000    -0.0644633  
C379     C      0.875280000000     0.294090000000     0.882560000000    -0.0204981  
C380     C      0.880060000000     0.242140000000     0.859100000000    -0.0652242  
C381     C      0.874000000000     0.271170000000     0.882400000000     0.0137751  
C382     C      0.879350000000     0.263390000000     0.863110000000     0.0143674  
C383     C      0.941240000000     0.124470000000     0.910960000000    -0.0203006  
C384     C      0.002970000000     0.106270000000     0.850290000000    -0.0200014  
C385     C      0.015770000000     0.115960000000     0.884220000000    -0.0196321  
C386     C      0.992930000000     0.115440000000     0.884210000000     0.0138479  
C387     C      0.985540000000     0.109840000000     0.864910000000     0.0134104  
C388     C      0.964270000000     0.108650000000     0.861010000000    -0.0643768  
C389     C      0.927920000000     0.114170000000     0.877430000000    -0.0207097  
C390     C      0.979580000000     0.120330000000     0.900580000000    -0.0651466  
C391     C      0.950870000000     0.113360000000     0.877490000000     0.0138189  
C392     C      0.958380000000     0.119130000000     0.896690000000     0.0142534  
C393     C      0.480770000000     0.604730000000     0.850720000000    -0.0204588  
C394     C      0.541780000000     0.623580000000     0.911260000000    -0.0202151  
C395     C      0.555490000000     0.613670000000     0.877620000000    -0.0207152  
C396     C      0.532580000000     0.612440000000     0.877790000000     0.013909   
C397     C      0.524850000000     0.617970000000     0.897040000000     0.0142702  
C398     C      0.503610000000     0.618790000000     0.901020000000    -0.0651424  
C399     C      0.467600000000     0.613970000000     0.884760000000    -0.0202653  
C400     C      0.519370000000     0.607610000000     0.861330000000    -0.064438   
C401     C      0.490450000000     0.613770000000     0.884680000000     0.0143401  
C402     C      0.498050000000     0.608420000000     0.865320000000     0.0138302  
C403     C      0.357070000000     0.860060000000     0.981170000000    -0.0199968  
C404     C      0.358710000000     0.853180000000     0.068990000000    -0.0205972  
C405     C      0.348310000000     0.886730000000     0.055730000000    -0.0202443  
C406     C      0.353770000000     0.872490000000     0.038570000000     0.0142511  
C407     C      0.359600000000     0.853290000000     0.046050000000     0.0138621  
C408     C      0.364400000000     0.836820000000     0.032630000000    -0.064481   
C409     C      0.366870000000     0.826130000000     0.993910000000    -0.0204501  
C410     C      0.352590000000     0.876400000000     0.017380000000    -0.065229   
C411     C      0.363230000000     0.840740000000     0.011360000000     0.0137822  
C412     C      0.357570000000     0.860040000000     0.004010000000     0.0141958  
C413     C      0.367800000000     0.741680000000     0.909640000000    -0.0205048  
C414     C      0.385690000000     0.679690000000     0.849010000000    -0.0204327  
C415     C      0.375530000000     0.666510000000     0.882580000000    -0.0206725  
C416     C      0.374720000000     0.689470000000     0.882480000000     0.0138253  
C417     C      0.380400000000     0.696890000000     0.863270000000     0.0143853  
C418     C      0.381610000000     0.718070000000     0.859350000000    -0.0652824  
C419     C      0.377350000000     0.754330000000     0.875680000000    -0.0202493  
C420     C      0.370100000000     0.702930000000     0.898960000000    -0.064409   
C421     C      0.376810000000     0.731490000000     0.875720000000     0.0143873  
C422     C      0.371290000000     0.724190000000     0.895030000000     0.0138287  
C423     C      0.371380000000     0.456110000000     0.871480000000    -0.0201463  
C424     C      0.364210000000     0.544040000000     0.871660000000    -0.0206068  
C425     C      0.397890000000     0.530160000000     0.861980000000    -0.0204293  
C426     C      0.383650000000     0.513290000000     0.867490000000     0.0144067  
C427     C      0.364370000000     0.521120000000     0.872900000000     0.0137859  
C428     C      0.347900000000     0.507980000000     0.877630000000    -0.0643749  
C429     C      0.337290000000     0.469430000000     0.880470000000    -0.0205723  
C430     C      0.387640000000     0.492040000000     0.866720000000    -0.0652305  
C431     C      0.351900000000     0.486650000000     0.876860000000     0.0138545  
C432     C      0.371290000000     0.478960000000     0.871650000000     0.0143328  
C433     C      0.085650000000     0.031020000000     0.861860000000    -0.0207514  
C434     C      0.146190000000     0.969150000000     0.879800000000    -0.0202137  
C435     C      0.112090000000     0.956450000000     0.870970000000    -0.020447   
C436     C      0.112200000000     0.979300000000     0.871230000000     0.0149545  
C437     C      0.131590000000     0.986630000000     0.876340000000     0.0126856  
C438     C      0.135620000000     0.007890000000     0.877140000000    -0.0631871  
C439     C      0.119350000000     0.044250000000     0.871350000000    -0.0202474  
C440     C      0.095850000000     0.992690000000     0.866440000000    -0.0664341  
C441     C      0.119160000000     0.021330000000     0.872540000000     0.0131981  
C442     C      0.099870000000     0.013880000000     0.867240000000     0.0155581  
C443     C      0.217960000000     0.850730000000     0.888890000000    -0.0201462  
C444     C      0.305750000000     0.858080000000     0.888630000000    -0.0205476  
C445     C      0.292570000000     0.824350000000     0.897970000000    -0.0203251  
C446     C      0.275400000000     0.838550000000     0.892620000000     0.0143342  
C447     C      0.282830000000     0.857860000000     0.887410000000     0.0137699  
C448     C      0.269360000000     0.874320000000     0.882880000000    -0.0643453  
C449     C      0.230600000000     0.884850000000     0.880220000000    -0.0204095  
C450     C      0.254220000000     0.834520000000     0.893400000000    -0.0652323  
C451     C      0.248100000000     0.870270000000     0.883650000000     0.0137546  
C452     C      0.240810000000     0.850860000000     0.888670000000     0.0143599  
C453     C      0.362610000000     0.595510000000     0.779180000000    -0.0201706  
C454     C      0.369810000000     0.596560000000     0.691310000000    -0.0206218  
C455     C      0.336060000000     0.587360000000     0.704770000000    -0.0203823  
C456     C      0.350330000000     0.592400000000     0.721840000000     0.0143823  
C457     C      0.369650000000     0.597530000000     0.714260000000     0.013761   
C458     C      0.386150000000     0.601800000000     0.727590000000    -0.0642851  
C459     C      0.396750000000     0.604050000000     0.766260000000    -0.0204029  
C460     C      0.346330000000     0.591440000000     0.743050000000    -0.0652802  
C461     C      0.382140000000     0.600850000000     0.748880000000     0.0137417  
C462     C      0.362720000000     0.595900000000     0.756330000000     0.0143839  
C463     C      0.358030000000     0.608460000000     0.568850000000    -0.0206521  
C464     C      0.357410000000     0.601180000000     0.480960000000    -0.0202513  
C465     C      0.365810000000     0.635360000000     0.494020000000    -0.0204606  
C466     C      0.362580000000     0.620750000000     0.511340000000     0.0137844  
C467     C      0.357700000000     0.601310000000     0.503810000000     0.0143976  
C468     C      0.353200000000     0.584930000000     0.517020000000    -0.0652224  
C469     C      0.348940000000     0.574680000000     0.555250000000    -0.0203782  
C470     C      0.363410000000     0.624780000000     0.532650000000    -0.064365   
C471     C      0.354030000000     0.588950000000     0.538250000000     0.014345   
C472     C      0.359090000000     0.608290000000     0.545910000000     0.0138225  
C473     C      0.291760000000     0.636470000000     0.398520000000    -0.0204759  
C474     C      0.231000000000     0.575890000000     0.379730000000    -0.0204613  
C475     C      0.217690000000     0.609930000000     0.389020000000    -0.0202655  
C476     C      0.240540000000     0.609850000000     0.388810000000     0.0144589  
C477     C      0.248220000000     0.590500000000     0.383440000000     0.0137287  
C478     C      0.269560000000     0.586520000000     0.382590000000    -0.0642698  
C479     C      0.305630000000     0.602850000000     0.388570000000    -0.0205126  
C480     C      0.253620000000     0.626200000000     0.393830000000    -0.0653624  
C481     C      0.282700000000     0.602980000000     0.387420000000     0.0137171  
C482     C      0.274880000000     0.622230000000     0.392980000000     0.014454   
C483     C      0.117020000000     0.634840000000     0.515950000000    -0.0204845  
C484     C      0.135730000000     0.574290000000     0.454130000000    -0.0203379  
C485     C      0.125340000000     0.607840000000     0.440860000000    -0.0207358  
C486     C      0.124410000000     0.607720000000     0.463800000000     0.0138721  
C487     C      0.130230000000     0.588520000000     0.471280000000     0.0143534  
C488     C      0.131360000000     0.584590000000     0.492470000000    -0.0652581  
C489     C      0.126810000000     0.600900000000     0.528680000000    -0.0202792  
C490     C      0.119580000000     0.624180000000     0.477230000000    -0.0644374  
C491     C      0.126350000000     0.600940000000     0.505840000000     0.0144041  
C492     C      0.120700000000     0.620240000000     0.498490000000     0.0138618  
C493     C      0.980750000000     0.605400000000     0.659260000000    -0.0203545  
C494     C      0.042200000000     0.623120000000     0.598690000000    -0.0201558  
C495     C      0.055660000000     0.613970000000     0.632450000000    -0.0205104  
C496     C      0.032750000000     0.612660000000     0.632240000000     0.0138973  
C497     C      0.025170000000     0.617750000000     0.612910000000     0.0139542  
C498     C      0.003960000000     0.618420000000     0.608870000000    -0.0635808  
C499     C      0.967830000000     0.613860000000     0.625100000000    -0.0197948  
C500     C      0.019420000000     0.608150000000     0.648710000000    -0.0637798  
C501     C      0.990680000000     0.613710000000     0.625230000000     0.0133878  
C502     C      0.998140000000     0.608810000000     0.644660000000     0.0134011  
C503     C      0.178110000000     0.602880000000     0.621210000000    -0.0205649  
C504     C      0.265890000000     0.610250000000     0.620940000000    -0.0202006  
C505     C      0.253260000000     0.576120000000     0.629620000000    -0.0204625  
C506     C      0.235750000000     0.590700000000     0.626190000000     0.013842   
C507     C      0.243040000000     0.610110000000     0.621170000000     0.0143579  
C508     C      0.229630000000     0.626450000000     0.616430000000    -0.0652161  
C509     C      0.191280000000     0.636610000000     0.611870000000    -0.0203362  
C510     C      0.214500000000     0.586640000000     0.626950000000    -0.0644336  
C511     C      0.208450000000     0.622400000000     0.617200000000     0.0143195  
C512     C      0.201030000000     0.603100000000     0.622410000000     0.0138222  
C513     C      0.766290000000     0.351110000000     0.620770000000    -0.0200978  
C514     C      0.678350000000     0.358090000000     0.621620000000    -0.0206339  
C515     C      0.692210000000     0.324470000000     0.611640000000    -0.0204467  
C516     C      0.709100000000     0.338730000000     0.617110000000     0.0143474  
C517     C      0.701290000000     0.357980000000     0.622680000000     0.01383    
C518     C      0.714430000000     0.374470000000     0.627420000000    -0.0644444  
C519     C      0.752980000000     0.385140000000     0.630080000000    -0.0206538  
C520     C      0.730360000000     0.334790000000     0.616150000000    -0.065171   
C521     C      0.735760000000     0.370510000000     0.626470000000     0.0139147  
C522     C      0.743450000000     0.351160000000     0.621080000000     0.0142958  
C523     C      0.396430000000     0.355900000000     0.744110000000    -0.0205038  
C524     C      0.335800000000     0.374420000000     0.805790000000    -0.0204454  
C525     C      0.369330000000     0.363970000000     0.819130000000    -0.0205634  
C526     C      0.369250000000     0.363130000000     0.796180000000     0.0137967  
C527     C      0.350060000000     0.368980000000     0.788660000000     0.0143614  
C528     C      0.346170000000     0.370190000000     0.767460000000    -0.065221   
C529     C      0.362520000000     0.365740000000     0.731290000000    -0.0201227  
C530     C      0.385720000000     0.358340000000     0.782800000000    -0.0643435  
C531     C      0.362530000000     0.365230000000     0.754130000000     0.014355   
C532     C      0.381820000000     0.359540000000     0.761530000000     0.0138263  
C533     C      0.480810000000     0.354720000000     0.659790000000    -0.0204842  
C534     C      0.542550000000     0.336530000000     0.599130000000    -0.0204126  
C535     C      0.555870000000     0.346850000000     0.632660000000    -0.0206156  
C536     C      0.532910000000     0.347660000000     0.632590000000     0.0137773  
C537     C      0.525410000000     0.341880000000     0.613400000000     0.0143713  
C538     C      0.504210000000     0.340660000000     0.609510000000    -0.0652297  
C539     C      0.468020000000     0.345010000000     0.625870000000    -0.0200981  
C540     C      0.519510000000     0.352360000000     0.649070000000    -0.0643294  
C541     C      0.490860000000     0.345530000000     0.625880000000     0.0143377  
C542     C      0.498240000000     0.351150000000     0.645170000000     0.0138237  
C543     C      0.371750000000     0.504530000000     0.638940000000    -0.0200202  
C544     C      0.364450000000     0.416740000000     0.638660000000    -0.0206989  
C545     C      0.398160000000     0.429960000000     0.648150000000    -0.0202913  
C546     C      0.383950000000     0.447100000000     0.642730000000     0.0142405  
C547     C      0.364660000000     0.439650000000     0.637440000000     0.0139185  
C548     C      0.348200000000     0.453100000000     0.632820000000    -0.0645459  
C549     C      0.337650000000     0.491840000000     0.630110000000    -0.020549   
C550     C      0.387970000000     0.468290000000     0.643520000000    -0.0650933  
C551     C      0.352240000000     0.474350000000     0.633600000000     0.0139479  
C552     C      0.371630000000     0.481680000000     0.638710000000     0.0142274  
C553     C      0.335890000000     0.873870000000     0.205180000000    -0.0203393  
C554     C      0.396440000000     0.854830000000     0.266230000000    -0.02062    
C555     C      0.362440000000     0.864340000000     0.279380000000    -0.0201805  
C556     C      0.362500000000     0.864070000000     0.256530000000     0.0143154  
C557     C      0.381840000000     0.858570000000     0.248950000000     0.0138853  
C558     C      0.385810000000     0.857670000000     0.227640000000    -0.0644406  
C559     C      0.369490000000     0.863710000000     0.191490000000    -0.0206198  
C560     C      0.346160000000     0.869160000000     0.243370000000    -0.065206   
C561     C      0.369350000000     0.862580000000     0.214420000000     0.0138173  
C562     C      0.350120000000     0.868250000000     0.222130000000     0.0143026  
C563     C      0.480920000000     0.853940000000     0.350260000000    -0.0205332  
C564     C      0.542440000000     0.837040000000     0.410960000000    -0.0203632  
C565     C      0.555880000000     0.846510000000     0.377260000000    -0.0207151  
C566     C      0.532930000000     0.847400000000     0.377390000000     0.0138622  
C567     C      0.525350000000     0.842110000000     0.396680000000     0.0142991  
C568     C      0.504140000000     0.841050000000     0.400640000000    -0.0651801  
C569     C      0.468010000000     0.845120000000     0.384340000000    -0.0201632  
C570     C      0.519590000000     0.851730000000     0.360890000000    -0.0644946  
C571     C      0.490850000000     0.845570000000     0.384260000000     0.0143191  
C572     C      0.498300000000     0.850680000000     0.364870000000     0.0138499  
C573     C      0.366510000000     0.719380000000     0.409650000000    -0.0205561  
C574     C      0.385060000000     0.780220000000     0.349070000000    -0.0203509  
C575     C      0.375400000000     0.794030000000     0.382750000000    -0.0206315  
C576     C      0.374130000000     0.771110000000     0.382580000000     0.0138115  
C577     C      0.379520000000     0.763330000000     0.363300000000     0.0143475  
C578     C      0.380260000000     0.742080000000     0.359300000000    -0.0652487  
C579     C      0.375480000000     0.706120000000     0.375550000000    -0.0203491  
C580     C      0.369390000000     0.757950000000     0.399050000000    -0.0643831  
C581     C      0.375330000000     0.728970000000     0.375650000000     0.0144125  
C582     C      0.370130000000     0.736630000000     0.395040000000     0.013825   
C583     C      0.398210000000     0.929620000000     0.361490000000    -0.0203312  
C584     C      0.337650000000     0.991730000000     0.379600000000    -0.0210923  
C585     C      0.371630000000     0.004310000000     0.370110000000    -0.0195092  
C586     C      0.371580000000     0.981470000000     0.370580000000     0.0134945  
C587     C      0.352250000000     0.974210000000     0.376070000000     0.0141472  
C588     C      0.348290000000     0.952960000000     0.377170000000    -0.0646539  
C589     C      0.364620000000     0.916510000000     0.371590000000    -0.0207167  
C590     C      0.387920000000     0.968010000000     0.365730000000    -0.0649181  
C591     C      0.364750000000     0.939460000000     0.372490000000     0.0139366  
C592     C      0.383980000000     0.946840000000     0.366840000000     0.0141429  
C593     C      0.837370000000     0.969440000000     0.380050000000    -0.0202148  
C594     C      0.898030000000     0.030160000000     0.361760000000    -0.0208597  
C595     C      0.864340000000     0.044040000000     0.371400000000    -0.0203838  
C596     C      0.864490000000     0.021120000000     0.372600000000     0.0131626  
C597     C      0.883770000000     0.013290000000     0.367220000000     0.0156068  
C598     C      0.887760000000     0.992030000000     0.366420000000    -0.0666052  
C599     C      0.871470000000     0.956110000000     0.371090000000    -0.0204529  
C600     C      0.848000000000     0.007990000000     0.377280000000    -0.0631016  
C601     C      0.871380000000     0.978960000000     0.371290000000     0.0149979  
C602     C      0.852000000000     0.986650000000     0.376480000000     0.0125962  
C603     C      0.766250000000     0.851220000000     0.389490000000    -0.0201859  
C604     C      0.678320000000     0.858420000000     0.388940000000    -0.0206362  
C605     C      0.692060000000     0.824680000000     0.398190000000    -0.0201996  
C606     C      0.709010000000     0.838950000000     0.393000000000     0.0142954  
C607     C      0.701260000000     0.858270000000     0.387840000000     0.0138032  
C608     C      0.714460000000     0.874770000000     0.383440000000    -0.0644001  
C609     C      0.753050000000     0.885370000000     0.380930000000    -0.020581   
C610     C      0.730250000000     0.834950000000     0.393830000000    -0.0652016  
C611     C      0.735790000000     0.870760000000     0.384270000000     0.0138234  
C612     C      0.743400000000     0.851340000000     0.389230000000     0.014342   
C613     C      0.867220000000     0.825950000000     0.515910000000    -0.0206188  
C614     C      0.848400000000     0.886560000000     0.454970000000    -0.0202843  
C615     C      0.858600000000     0.852980000000     0.441220000000    -0.0205642  
C616     C      0.859650000000     0.853090000000     0.464150000000     0.013817   
C617     C      0.853950000000     0.872320000000     0.471900000000     0.0142442  
C618     C      0.852960000000     0.876250000000     0.493150000000    -0.0651497  
C619     C      0.857660000000     0.859940000000     0.529130000000    -0.0201622  
C620     C      0.864490000000     0.836620000000     0.477330000000    -0.0643915  
C621     C      0.857990000000     0.859890000000     0.506280000000     0.0142868  
C622     C      0.863510000000     0.840570000000     0.498660000000     0.013839   
C623     C      0.598260000000     0.281280000000     0.161310000000    -0.0205135  
C624     C      0.616150000000     0.219300000000     0.100680000000    -0.0205078  
C625     C      0.606630000000     0.206640000000     0.134650000000    -0.0202869  
C626     C      0.607160000000     0.229480000000     0.134610000000     0.0143829  
C627     C      0.612660000000     0.236790000000     0.115290000000     0.0138343  
C628     C      0.613830000000     0.258040000000     0.111360000000    -0.0643808  
C629     C      0.608380000000     0.294460000000     0.127730000000    -0.020573   
C630     C      0.602360000000     0.242900000000     0.150970000000    -0.0652055  
C631     C      0.609200000000     0.271510000000     0.127830000000     0.0137746  
C632     C      0.603540000000     0.264080000000     0.147050000000     0.0143944  
C633     C      0.619760000000     0.416930000000     0.138710000000    -0.0206114  
C634     C      0.612610000000     0.504870000000     0.138890000000    -0.0203083  
C635     C      0.646700000000     0.491530000000     0.129910000000    -0.0204441  
C636     C      0.632090000000     0.474320000000     0.133520000000     0.0137572  
C637     C      0.612700000000     0.482010000000     0.138720000000     0.0144064  
C638     C      0.596340000000     0.468940000000     0.143640000000    -0.0652527  
C639     C      0.586080000000     0.430820000000     0.148370000000    -0.0203939  
C640     C      0.636090000000     0.452980000000     0.132760000000    -0.0643357  
C641     C      0.600330000000     0.447680000000     0.142890000000     0.0143792  
C642     C      0.619610000000     0.439850000000     0.137490000000     0.0137751  
C643     C      0.635620000000     0.574390000000     0.054950000000    -0.0203817  
C644     C      0.616630000000     0.634970000000     0.994030000000    -0.0204638  
C645     C      0.626180000000     0.600980000000     0.980810000000    -0.0200032  
C646     C      0.625900000000     0.601030000000     0.003650000000     0.0142301  
C647     C      0.620380000000     0.620360000000     0.011280000000     0.0137718  
C648     C      0.619450000000     0.624320000000     0.032600000000    -0.0643794  
C649     C      0.625430000000     0.607970000000     0.068720000000    -0.0205416  
C650     C      0.630970000000     0.584680000000     0.016780000000    -0.0652505  
C651     C      0.624340000000     0.607860000000     0.045790000000     0.0137549  
C652     C      0.630040000000     0.588630000000     0.038030000000     0.0143684  
C653     C      0.805790000000     0.358060000000     0.388600000000    -0.0204616  
C654     C      0.718000000000     0.350770000000     0.389280000000    -0.0201407  
C655     C      0.730620000000     0.384890000000     0.380560000000    -0.020477   
C656     C      0.748140000000     0.370300000000     0.383900000000     0.0137989  
C657     C      0.740850000000     0.350890000000     0.388950000000     0.0143452  
C658     C      0.754280000000     0.334540000000     0.393600000000    -0.0652066  
C659     C      0.792640000000     0.324330000000     0.397980000000    -0.0204658  
C660     C      0.769390000000     0.374330000000     0.383040000000    -0.0643354  
C661     C      0.775460000000     0.338560000000     0.392740000000     0.0143834  
C662     C      0.782870000000     0.357870000000     0.387500000000     0.0137532  
C663     C      0.618100000000     0.325590000000     0.516280000000    -0.0205352  
C664     C      0.634940000000     0.386300000000     0.455080000000    -0.0203873  
C665     C      0.625860000000     0.352530000000     0.441460000000    -0.0206217  
C666     C      0.624790000000     0.352690000000     0.464400000000     0.0137783  
C667     C      0.629840000000     0.372030000000     0.472070000000     0.0143812  
C668     C      0.630690000000     0.376040000000     0.493300000000    -0.0652672  
C669     C      0.626500000000     0.359770000000     0.529360000000    -0.0203343  
C670     C      0.620490000000     0.336180000000     0.477660000000    -0.0643933  
C671     C      0.626200000000     0.359640000000     0.506510000000     0.014402   
C672     C      0.621330000000     0.340210000000     0.498970000000     0.0138223  
C673     C      0.621300000000     0.365450000000     0.231160000000    -0.0201658  
C674     C      0.614060000000     0.364470000000     0.319020000000    -0.0205648  
C675     C      0.647820000000     0.373640000000     0.305580000000    -0.0202483  
C676     C      0.633550000000     0.368590000000     0.288500000000     0.0142981  
C677     C      0.614230000000     0.363480000000     0.296080000000     0.013783   
C678     C      0.597730000000     0.359210000000     0.282740000000    -0.0643372  
C679     C      0.587140000000     0.356940000000     0.244070000000    -0.0205603  
C680     C      0.637560000000     0.369530000000     0.267290000000    -0.0651854  
C681     C      0.601750000000     0.360140000000     0.261450000000     0.0138339  
C682     C      0.621180000000     0.365080000000     0.254000000000     0.0143459  
C683     C      0.503150000000     0.606290000000     0.350510000000    -0.0205582  
C684     C      0.441400000000     0.624400000000     0.411190000000    -0.0203761  
C685     C      0.428090000000     0.614090000000     0.377660000000    -0.0205055  
C686     C      0.451050000000     0.613300000000     0.377720000000     0.0137704  
C687     C      0.458540000000     0.619070000000     0.396920000000     0.0143636  
C688     C      0.479740000000     0.620310000000     0.400810000000    -0.0652217  
C689     C      0.515940000000     0.616000000000     0.384440000000    -0.0201279  
C690     C      0.464450000000     0.608620000000     0.361240000000    -0.0643909  
C691     C      0.493100000000     0.615450000000     0.384430000000     0.0143059  
C692     C      0.485720000000     0.609850000000     0.365140000000     0.0138718  
C693     C      0.614690000000     0.597020000000     0.191190000000    -0.0205345  
C694     C      0.621480000000     0.595290000000     0.279040000000    -0.020227   
C695     C      0.587560000000     0.605140000000     0.266210000000    -0.0205877  
C696     C      0.602190000000     0.601480000000     0.248790000000     0.0138802  
C697     C      0.621470000000     0.595800000000     0.256200000000     0.014338   
C698     C      0.637830000000     0.590810000000     0.242870000000    -0.065177   
C699     C      0.648210000000     0.586570000000     0.204550000000    -0.0204095  
C700     C      0.598290000000     0.602670000000     0.227520000000    -0.0644312  
C701     C      0.633940000000     0.592000000000     0.221670000000     0.0143451  
C702     C      0.614760000000     0.597860000000     0.214140000000     0.0137976  
C703     C      0.619480000000     0.544300000000     0.371670000000    -0.0206394  
C704     C      0.612150000000     0.456500000000     0.371410000000    -0.0201174  
C705     C      0.646240000000     0.469180000000     0.380270000000    -0.020486   
C706     C      0.631660000000     0.486670000000     0.376770000000     0.0138711  
C707     C      0.612270000000     0.479350000000     0.371630000000     0.0142845  
C708     C      0.595940000000     0.492750000000     0.366800000000    -0.065181   
C709     C      0.585780000000     0.531080000000     0.362140000000    -0.02035    
C710     C      0.635710000000     0.507930000000     0.377540000000    -0.0644903  
C711     C      0.599970000000     0.513930000000     0.367570000000     0.0143154  
C712     C      0.619270000000     0.521380000000     0.372890000000     0.0138716  
C713     C      0.608630000000     0.666770000000     0.382590000000    -0.020511   
C714     C      0.608600000000     0.754580000000     0.375270000000    -0.0201709  
C715     C      0.617350000000     0.741760000000     0.409380000000    -0.020584   
C716     C      0.613850000000     0.724330000000     0.394790000000     0.0138504  
C717     C      0.608780000000     0.731730000000     0.375390000000     0.0143237  
C718     C      0.603940000000     0.718410000000     0.359050000000    -0.0652098  
C719     C      0.599210000000     0.680140000000     0.348880000000    -0.0203221  
C720     C      0.614560000000     0.703060000000     0.398830000000    -0.0643374  
C721     C      0.604660000000     0.697210000000     0.363090000000     0.0143492  
C722     C      0.609920000000     0.689680000000     0.382380000000     0.0137724  
C723     C      0.835910000000     0.874400000000     0.305370000000    -0.0202424  
C724     C      0.896560000000     0.855800000000     0.243730000000    -0.0205328  
C725     C      0.862650000000     0.865640000000     0.230890000000    -0.0200843  
C726     C      0.862650000000     0.865150000000     0.253730000000     0.0142783  
C727     C      0.881930000000     0.859460000000     0.261140000000     0.0138315  
C728     C      0.885830000000     0.858290000000     0.282420000000    -0.0644403  
C729     C      0.869420000000     0.863950000000     0.318740000000    -0.0205938  
C730     C      0.846290000000     0.870140000000     0.267050000000    -0.0651344  
C731     C      0.869360000000     0.863100000000     0.295790000000     0.0138307  
C732     C      0.850170000000     0.868950000000     0.288260000000     0.0142353  
C733     C      0.871940000000     0.004440000000     0.138680000000    -0.0193005  
C734     C      0.864650000000     0.916640000000     0.138300000000    -0.0205476  
C735     C      0.898350000000     0.929860000000     0.147810000000    -0.0202517  
C736     C      0.884150000000     0.947010000000     0.142400000000     0.014109   
C737     C      0.864850000000     0.939560000000     0.137090000000     0.0138844  
C738     C      0.848400000000     0.953010000000     0.132490000000    -0.0646452  
C739     C      0.837840000000     0.991760000000     0.129830000000    -0.0211181  
C740     C      0.888170000000     0.968190000000     0.143220000000    -0.064954   
C741     C      0.852430000000     0.974270000000     0.133300000000     0.0141476  
C742     C      0.871830000000     0.981590000000     0.138430000000     0.0134106  
C743     C      0.516020000000     0.847060000000     0.884800000000    -0.0202531  
C744     C      0.428190000000     0.846970000000     0.877420000000    -0.0206236  
C745     C      0.441650000000     0.837810000000     0.911190000000    -0.0204444  
C746     C      0.458680000000     0.843180000000     0.896970000000     0.0143471  
C747     C      0.451100000000     0.848280000000     0.877640000000     0.0138168  
C748     C      0.464440000000     0.852790000000     0.861170000000    -0.0644446  
C749     C      0.503110000000     0.855530000000     0.850630000000    -0.0205714  
C750     C      0.479890000000     0.842510000000     0.901010000000    -0.0651691  
C751     C      0.485720000000     0.852130000000     0.865230000000     0.0138605  
C752     C      0.493170000000     0.847220000000     0.884660000000     0.0143368  
C753     C      0.598250000000     0.780650000000     0.849230000000    -0.0203653  
C754     C      0.615480000000     0.719370000000     0.909960000000    -0.020569   
C755     C      0.606470000000     0.706320000000     0.875910000000    -0.0201806  
C756     C      0.606920000000     0.729160000000     0.875970000000     0.0143269  
C757     C      0.612140000000     0.736690000000     0.895340000000     0.0138858  
C758     C      0.613210000000     0.758000000000     0.899290000000    -0.0644761  
C759     C      0.607910000000     0.794230000000     0.882880000000    -0.0206231  
C760     C      0.602300000000     0.742390000000     0.859580000000    -0.0652029  
C761     C      0.608770000000     0.771270000000     0.882790000000     0.0138287  
C762     C      0.603380000000     0.763620000000     0.863520000000     0.0143269  
C763     C      0.718030000000     0.850820000000     0.620230000000    -0.0202873  
C764     C      0.805840000000     0.857810000000     0.621510000000    -0.0204876  
C765     C      0.792670000000     0.824240000000     0.611280000000    -0.0203457  
C766     C      0.775480000000     0.838470000000     0.616770000000     0.0143473  
C767     C      0.782900000000     0.857680000000     0.622490000000     0.013747   
C768     C      0.769420000000     0.874140000000     0.627280000000    -0.0644348  
C769     C      0.730670000000     0.884780000000     0.629850000000    -0.0204631  
C770     C      0.754300000000     0.834530000000     0.615690000000    -0.0651783  
C771     C      0.748170000000     0.870180000000     0.626210000000     0.0138278  
C772     C      0.740870000000     0.850870000000     0.620650000000     0.014357   
C773     C      0.625630000000     0.852760000000     0.568880000000    -0.0205572  
C774     C      0.626050000000     0.860140000000     0.481090000000    -0.0203837  
C775     C      0.617600000000     0.825960000000     0.493790000000    -0.0205655  
C776     C      0.620880000000     0.840560000000     0.511270000000     0.013829   
C777     C      0.625780000000     0.859990000000     0.503930000000     0.0143925  
C778     C      0.630350000000     0.876350000000     0.517320000000    -0.06527    
C779     C      0.634750000000     0.886540000000     0.555640000000    -0.0204866  
C780     C      0.620100000000     0.836500000000     0.532520000000    -0.064351   
C781     C      0.629560000000     0.872300000000     0.538500000000     0.0144039  
C782     C      0.624480000000     0.852970000000     0.545960000000     0.0137508  
C783     C      0.647930000000     0.873100000000     0.704750000000    -0.0202892  
C784     C      0.587350000000     0.855760000000     0.766310000000    -0.0206314  
C785     C      0.621540000000     0.864080000000     0.779170000000    -0.0201431  
C786     C      0.621390000000     0.863900000000     0.756320000000     0.014306   
C787     C      0.601950000000     0.859080000000     0.748900000000     0.0138683  
C788     C      0.597880000000     0.858410000000     0.727630000000    -0.0643809  
C789     C      0.614140000000     0.864090000000     0.691350000000    -0.0205064  
C790     C      0.637750000000     0.868520000000     0.743020000000    -0.0652108  
C791     C      0.614350000000     0.862830000000     0.714270000000     0.0137678  
C792     C      0.633700000000     0.867840000000     0.721820000000     0.0142962  
C793     C      0.942020000000     0.837350000000     0.598670000000    -0.0203141  
C794     C      0.003040000000     0.856210000000     0.659190000000    -0.0199606  
C795     C      0.016200000000     0.846990000000     0.625140000000    -0.0196172  
C796     C      0.993350000000     0.847190000000     0.625230000000     0.0137699  
C797     C      0.985750000000     0.852520000000     0.644590000000     0.0133553  
C798     C      0.964440000000     0.853310000000     0.648600000000    -0.0643823  
C799     C      0.928310000000     0.847240000000     0.632320000000    -0.0206529  
C800     C      0.980190000000     0.842150000000     0.608900000000    -0.0650371  
C801     C      0.951230000000     0.848470000000     0.632150000000     0.0137985  
C802     C      0.958950000000     0.842950000000     0.612890000000     0.0142     
C803     C      0.114030000000     0.864430000000     0.818560000000    -0.0204689  
C804     C      0.121220000000     0.865430000000     0.730700000000    -0.020111   
C805     C      0.087070000000     0.856890000000     0.743630000000    -0.0207097  
C806     C      0.101690000000     0.860100000000     0.761000000000     0.0139182  
C807     C      0.121110000000     0.865050000000     0.753540000000     0.0142912  
C808     C      0.137500000000     0.869520000000     0.766820000000    -0.0652088  
C809     C      0.147770000000     0.873630000000     0.805100000000    -0.0203515  
C810     C      0.097680000000     0.859170000000     0.782290000000    -0.0643909  
C811     C      0.133500000000     0.868590000000     0.788030000000     0.0143298  
C812     C      0.114180000000     0.863460000000     0.795620000000     0.013769   
C813     C      0.108250000000     0.794430000000     0.627280000000    -0.0205578  
C814     C      0.106480000000     0.706610000000     0.634180000000    -0.0203291  
C815     C      0.116010000000     0.719270000000     0.600210000000    -0.0205601  
C816     C      0.112510000000     0.736760000000     0.614830000000     0.0138615  
C817     C      0.107010000000     0.729450000000     0.634140000000     0.0144067  
C818     C      0.102210000000     0.742870000000     0.650510000000    -0.0652246  
C819     C      0.098120000000     0.781250000000     0.660850000000    -0.0204341  
C820     C      0.113690000000     0.758020000000     0.610900000000    -0.0644335  
C821     C      0.103390000000     0.764050000000     0.646590000000     0.0143836  
C822     C      0.109060000000     0.771480000000     0.627370000000     0.0138291  
C823     C      0.119610000000     0.916920000000     0.638280000000    -0.0205741  
C824     C      0.112450000000     0.004850000000     0.638560000000    -0.0195048  
C825     C      0.146550000000     0.991530000000     0.629570000000    -0.0211657  
C826     C      0.131930000000     0.974310000000     0.633150000000     0.0141312  
C827     C      0.112550000000     0.982000000000     0.638360000000     0.0135161  
C828     C      0.096190000000     0.968920000000     0.643260000000    -0.06489    
C829     C      0.085930000000     0.930790000000     0.647950000000    -0.0202686  
C830     C      0.135940000000     0.952980000000     0.632370000000    -0.0645811  
C831     C      0.100180000000     0.947660000000     0.642480000000     0.0141491  
C832     C      0.119460000000     0.939840000000     0.637080000000     0.013863   
C833     C      0.357960000000     0.100880000000     0.529250000000    -0.0201596  
C834     C      0.358370000000     0.108210000000     0.441450000000    -0.0204202  
C835     C      0.349240000000     0.074450000000     0.454710000000    -0.0204143  
C836     C      0.354450000000     0.088680000000     0.471840000000     0.0143883  
C837     C      0.359540000000     0.108010000000     0.464370000000     0.0137595  
C838     C      0.363920000000     0.124490000000     0.477800000000    -0.0643981  
C839     C      0.366410000000     0.135050000000     0.516530000000    -0.0205953  
C840     C      0.353660000000     0.084650000000     0.493030000000    -0.0651899  
C841     C      0.363130000000     0.120440000000     0.499060000000     0.0138727  
C842     C      0.358230000000     0.101010000000     0.506400000000     0.0143615  
C843     C      0.366640000000     0.219290000000     0.600920000000    -0.0206478  
C844     C      0.384700000000     0.280910000000     0.661440000000    -0.0204031  
C845     C      0.375320000000     0.294280000000     0.627710000000    -0.0206383  
C846     C      0.374030000000     0.271370000000     0.627930000000     0.0138397  
C847     C      0.379260000000     0.263840000000     0.647230000000     0.0143687  
C848     C      0.379980000000     0.242640000000     0.651270000000    -0.0652629  
C849     C      0.375350000000     0.206460000000     0.635050000000    -0.020225   
C850     C      0.369420000000     0.257990000000     0.611470000000    -0.0644396  
C851     C      0.375170000000     0.229320000000     0.634920000000     0.0143436  
C852     C      0.370130000000     0.236720000000     0.615520000000     0.0138906  
C853     C      0.305610000000     0.102620000000     0.621240000000    -0.0205335  
C854     C      0.217680000000     0.109750000000     0.620310000000    -0.0200952  
C855     C      0.230860000000     0.075600000000     0.628900000000    -0.0206156  
C856     C      0.248130000000     0.090240000000     0.625650000000     0.0138905  
C857     C      0.240530000000     0.109650000000     0.620670000000     0.0143183  
C858     C      0.253680000000     0.126050000000     0.616140000000    -0.0651729  
C859     C      0.291880000000     0.136360000000     0.611970000000    -0.0205335  
C860     C      0.269450000000     0.086240000000     0.626570000000    -0.0643589  
C861     C      0.274930000000     0.122070000000     0.617060000000     0.0143937  
C862     C      0.282660000000     0.102750000000     0.622230000000     0.0137755  
C863     C      0.441530000000     0.123980000000     0.599390000000    -0.0204755  
C864     C      0.503040000000     0.107030000000     0.660100000000    -0.0204794  
C865     C      0.515950000000     0.115830000000     0.626010000000    -0.0200807  
C866     C      0.493110000000     0.115400000000     0.626100000000     0.0143301  
C867     C      0.485660000000     0.110300000000     0.645480000000     0.0138614  
C868     C      0.464370000000     0.109280000000     0.649470000000    -0.0644158  
C869     C      0.428080000000     0.114530000000     0.633090000000    -0.0206153  
C870     C      0.479820000000     0.119940000000     0.609710000000    -0.0652192  
C871     C      0.451030000000     0.113640000000     0.632970000000     0.0137992  
C872     C      0.458610000000     0.118910000000     0.613680000000     0.0144027  
C873     C      0.585750000000     0.031320000000     0.648880000000    -0.0208742  
C874     C      0.646340000000     0.969210000000     0.630800000000    -0.0201784  
C875     C      0.612350000000     0.956630000000     0.640270000000    -0.0205237  
C876     C      0.612410000000     0.979470000000     0.639810000000     0.0150318  
C877     C      0.631730000000     0.986730000000     0.634330000000     0.0126092  
C878     C      0.635690000000     0.007980000000     0.633230000000    -0.063113   
C879     C      0.619350000000     0.044430000000     0.638790000000    -0.020395   
C880     C      0.596060000000     0.992920000000     0.644650000000    -0.0665515  
C881     C      0.619220000000     0.021480000000     0.637900000000     0.0131785  
C882     C      0.600000000000     0.014100000000     0.643540000000     0.0156068  
C883     C      0.608500000000     0.254810000000     0.634770000000    -0.0201239  
C884     C      0.608540000000     0.166900000000     0.627590000000    -0.0204616  
C885     C      0.598920000000     0.180720000000     0.661280000000    -0.020473   
C886     C      0.604450000000     0.197600000000     0.647040000000     0.0143754  
C887     C      0.609820000000     0.189810000000     0.627750000000     0.0137937  
C888     C      0.614550000000     0.202970000000     0.611280000000    -0.0644184  
C889     C      0.617430000000     0.241540000000     0.600670000000    -0.0206455  
C890     C      0.603720000000     0.218850000000     0.651030000000    -0.0651288  
C891     C      0.613820000000     0.224300000000     0.615290000000     0.0138979  
C892     C      0.608650000000     0.231960000000     0.634680000000     0.0142843  
C893     C      0.717500000000     0.109820000000     0.889380000000    -0.0202374  
C894     C      0.805450000000     0.102870000000     0.888540000000    -0.0205452  
C895     C      0.791580000000     0.136480000000     0.898520000000    -0.020296   
C896     C      0.774700000000     0.122220000000     0.893050000000     0.0143454  
C897     C      0.782510000000     0.102970000000     0.887480000000     0.013805   
C898     C      0.769380000000     0.086480000000     0.882730000000    -0.0643403  
C899     C      0.730830000000     0.075800000000     0.880070000000    -0.0204462  
C900     C      0.753440000000     0.126150000000     0.894000000000    -0.0651965  
C901     C      0.748040000000     0.090430000000     0.883680000000     0.0138172  
C902     C      0.740350000000     0.109770000000     0.889070000000     0.0143612  
C903     C      0.612670000000     0.004610000000     0.870160000000    -0.0194232  
C904     C      0.619730000000     0.916680000000     0.871180000000    -0.0206508  
C905     C      0.586050000000     0.930390000000     0.861640000000    -0.0202542  
C906     C      0.600330000000     0.947360000000     0.866840000000     0.0141584  
C907     C      0.619610000000     0.939620000000     0.872160000000     0.0138508  
C908     C      0.636110000000     0.952840000000     0.876620000000    -0.0645423  
C909     C      0.646760000000     0.991430000000     0.879030000000    -0.0211396  
C910     C      0.596360000000     0.968600000000     0.865870000000    -0.0650005  
C911     C      0.632140000000     0.974160000000     0.875650000000     0.0141099  
C912     C      0.612750000000     0.981760000000     0.870510000000     0.0134996  
C913     C      0.648030000000     0.087010000000     0.805180000000    -0.0205265  
C914     C      0.587490000000     0.106090000000     0.744120000000    -0.0204862  
C915     C      0.621500000000     0.096600000000     0.730980000000    -0.0202866  
C916     C      0.621430000000     0.096850000000     0.753830000000     0.0144221  
C917     C      0.602090000000     0.102340000000     0.761410000000     0.0138363  
C918     C      0.598110000000     0.103220000000     0.782720000000    -0.0643805  
C919     C      0.614420000000     0.097160000000     0.818870000000    -0.0206502  
C920     C      0.637760000000     0.091760000000     0.766990000000    -0.0651741  
C921     C      0.614570000000     0.098310000000     0.795940000000     0.013834   
C922     C      0.633800000000     0.092640000000     0.788230000000     0.0143945  
C923     C      0.617070000000     0.134810000000     0.016420000000    -0.0207368  
C924     C      0.635660000000     0.074190000000     0.954630000000    -0.0203744  
C925     C      0.625240000000     0.107720000000     0.941350000000    -0.0204806  
C926     C      0.624350000000     0.107630000000     0.964290000000     0.0138566  
C927     C      0.630190000000     0.088440000000     0.971780000000     0.0142986  
C928     C      0.631370000000     0.084540000000     0.992970000000    -0.0649159  
C929     C      0.626890000000     0.100890000000     0.029180000000    -0.0199899  
C930     C      0.619540000000     0.124100000000     0.977710000000    -0.0644887  
C931     C      0.626390000000     0.100900000000     0.006330000000     0.013969   
C932     C      0.620710000000     0.120190000000     0.998980000000     0.0142045  
C933     C      0.858230000000     0.608250000000     0.941020000000    -0.0206357  
C934     C      0.857980000000     0.600830000000     0.028820000000    -0.0200401  
C935     C      0.866410000000     0.635010000000     0.016110000000    -0.0207865  
C936     C      0.863090000000     0.620420000000     0.998640000000     0.0142137  
C937     C      0.858210000000     0.600990000000     0.005970000000     0.0139315  
C938     C      0.853610000000     0.584640000000     0.992590000000    -0.0648777  
C939     C      0.849130000000     0.574470000000     0.954270000000    -0.0203291  
C940     C      0.863840000000     0.624490000000     0.977380000000    -0.064568   
C941     C      0.854350000000     0.588690000000     0.971400000000     0.014192   
C942     C      0.859430000000     0.608030000000     0.963940000000     0.0139205  
C943     C      0.866760000000     0.719190000000     0.100530000000    -0.0206199  
C944     C      0.884910000000     0.780800000000     0.161050000000    -0.0202982  
C945     C      0.875480000000     0.794170000000     0.127340000000    -0.0205211  
C946     C      0.874190000000     0.771260000000     0.127540000000     0.0138236  
C947     C      0.879450000000     0.763730000000     0.146840000000     0.0142735  
C948     C      0.880170000000     0.742530000000     0.150860000000    -0.0651356  
C949     C      0.875510000000     0.706360000000     0.134640000000    -0.0201331  
C950     C      0.869560000000     0.757890000000     0.111090000000    -0.0644559  
C951     C      0.875340000000     0.729210000000     0.134520000000     0.014262   
C952     C      0.870270000000     0.736620000000     0.115130000000     0.0138854  
C953     C      0.731020000000     0.575580000000     0.128950000000    -0.0206175  
C954     C      0.792020000000     0.636280000000     0.111730000000    -0.0203913  
C955     C      0.805760000000     0.602530000000     0.120970000000    -0.0207483  
C956     C      0.782820000000     0.602690000000     0.122060000000     0.0138543  
C957     C      0.775080000000     0.622010000000     0.116910000000     0.0143207  
C958     C      0.753830000000     0.626010000000     0.116070000000    -0.0651999  
C959     C      0.717830000000     0.609730000000     0.120400000000    -0.0200594  
C960     C      0.769620000000     0.586180000000     0.126460000000    -0.0644517  
C961     C      0.740680000000     0.609620000000     0.120660000000     0.0142781  
C962     C      0.748290000000     0.590200000000     0.125620000000     0.013871   
C963     C      0.376100000000     0.166620000000     0.127440000000    -0.0205264  
C964     C      0.377470000000     0.254530000000     0.134410000000    -0.0202431  
C965     C      0.368500000000     0.241480000000     0.100350000000    -0.0204705  
C966     C      0.371840000000     0.224160000000     0.114980000000     0.0138013  
C967     C      0.377040000000     0.231690000000     0.134350000000     0.0143989  
C968     C      0.381650000000     0.218470000000     0.150740000000    -0.0652306  
C969     C      0.385720000000     0.180210000000     0.161100000000    -0.020438   
C970     C      0.370790000000     0.202850000000     0.111030000000    -0.0643875  
C971     C      0.380600000000     0.197240000000     0.146800000000     0.0143739  
C972     C      0.375220000000     0.189580000000     0.127530000000     0.0137729  
C973     C      0.348370000000     0.386520000000     0.955380000000    -0.0203635  
C974     C      0.367360000000     0.325910000000     0.016270000000    -0.020803   
C975     C      0.357820000000     0.359900000000     0.029510000000    -0.0201048  
C976     C      0.358100000000     0.359850000000     0.006670000000     0.0139477  
C977     C      0.363610000000     0.340530000000     0.999020000000     0.0142467  
C978     C      0.364540000000     0.336580000000     0.977700000000    -0.064597   
C979     C      0.358560000000     0.352940000000     0.941600000000    -0.0207124  
C980     C      0.353020000000     0.376200000000     0.993540000000    -0.0648915  
C981     C      0.359650000000     0.353050000000     0.964530000000     0.0139757  
C982     C      0.353950000000     0.372270000000     0.972300000000     0.014228   
C983     C      0.442180000000     0.337280000000     0.099070000000    -0.0203604  
C984     C      0.503160000000     0.356220000000     0.159600000000    -0.0205755  
C985     C      0.516340000000     0.346990000000     0.125560000000    -0.0201248  
C986     C      0.493490000000     0.347170000000     0.125640000000     0.0142913  
C987     C      0.485890000000     0.352510000000     0.145000000000     0.013865   
C988     C      0.464570000000     0.353290000000     0.149000000000    -0.0643911  
C989     C      0.428450000000     0.347180000000     0.132700000000    -0.0205402  
C990     C      0.480340000000     0.342120000000     0.109300000000    -0.0651615  
C991     C      0.451370000000     0.348430000000     0.132540000000     0.0137925  
C992     C      0.459100000000     0.342900000000     0.113290000000     0.0143309  
C993     C      0.941740000000     0.337870000000     0.410970000000    -0.0203452  
C994     C      0.003170000000     0.355650000000     0.350390000000    -0.0200809  
C995     C      0.016100000000     0.347220000000     0.384570000000    -0.0197011  
C996     C      0.993250000000     0.347340000000     0.384430000000     0.013847   
C997     C      0.985790000000     0.352230000000     0.365000000000     0.0133723  
C998     C      0.964510000000     0.352850000000     0.360940000000    -0.0642793  
C999     C      0.928270000000     0.346990000000     0.377200000000    -0.0205966  
C1000    C      0.979980000000     0.342610000000     0.400780000000    -0.0651307  
C1001    C      0.951180000000     0.348320000000     0.377410000000     0.0137407  
C1002    C      0.958770000000     0.343240000000     0.396740000000     0.0142521  
C1003    C      0.112830000000     0.504770000000     0.369640000000    -0.0201422  
C1004    C      0.119810000000     0.416840000000     0.370840000000    -0.0204193  
C1005    C      0.086140000000     0.430560000000     0.361260000000    -0.0204533  
C1006    C      0.100440000000     0.447520000000     0.366430000000     0.0144071  
C1007    C      0.119710000000     0.439790000000     0.371770000000     0.0137444  
C1008    C      0.136230000000     0.452990000000     0.376210000000    -0.0644182  
C1009    C      0.146900000000     0.491580000000     0.378560000000    -0.020633   
C1010    C      0.096490000000     0.468770000000     0.365410000000    -0.0652313  
C1011    C      0.132270000000     0.474320000000     0.375200000000     0.0138777  
C1012    C      0.112890000000     0.481930000000     0.370030000000     0.0143459  
C1013    C      0.107990000000     0.294390000000     0.382640000000    -0.0205883  
C1014    C      0.106650000000     0.206480000000     0.375670000000    -0.0201154  
C1015    C      0.115630000000     0.219540000000     0.409720000000    -0.0205891  
C1016    C      0.112280000000     0.236860000000     0.395090000000     0.0138606  
C1017    C      0.107080000000     0.229330000000     0.375730000000     0.0143387  
C1018    C      0.102450000000     0.242550000000     0.359340000000    -0.0651772  
C1019    C      0.098360000000     0.280800000000     0.348980000000    -0.0205595  
C1020    C      0.113320000000     0.258170000000     0.399050000000    -0.0643719  
C1021    C      0.103500000000     0.263780000000     0.363280000000     0.01442    
C1022    C      0.108870000000     0.271440000000     0.382540000000     0.0137815  
C1023    C      0.087660000000     0.606160000000     0.243630000000    -0.0204646  
C1024    C      0.148220000000     0.587150000000     0.304680000000    -0.020379   
C1025    C      0.114630000000     0.597320000000     0.318380000000    -0.0206292  
C1026    C      0.114770000000     0.598460000000     0.295450000000     0.0138297  
C1027    C      0.134000000000     0.592770000000     0.287740000000     0.0143825  
C1028    C      0.137950000000     0.591840000000     0.266500000000    -0.0652654  
C1029    C      0.121660000000     0.596640000000     0.230490000000    -0.0202187  
C1030    C      0.098310000000     0.603340000000     0.282230000000    -0.0643691  
C1031    C      0.121600000000     0.596920000000     0.253330000000     0.0143841  
C1032    C      0.102270000000     0.602430000000     0.260920000000     0.0138358  
C1033    C      0.003180000000     0.607030000000     0.159620000000    -0.0199837  
C1034    C      0.941640000000     0.623910000000     0.098920000000    -0.0202946  
C1035    C      0.928210000000     0.614430000000     0.132620000000    -0.0206969  
C1036    C      0.951160000000     0.613560000000     0.132490000000     0.0137936  
C1037    C      0.958730000000     0.618850000000     0.113200000000     0.0141891  
C1038    C      0.979950000000     0.619910000000     0.109230000000    -0.0650741  
C1039    C      0.016080000000     0.615860000000     0.125530000000    -0.0196006  
C1040    C      0.964510000000     0.609230000000     0.148990000000    -0.0643756  
C1041    C      0.993240000000     0.615400000000     0.125620000000     0.0138055  
C1042    C      0.985790000000     0.610290000000     0.145010000000     0.0133871  
C1043    C      0.134970000000     0.886310000000     0.954620000000    -0.0203846  
C1044    C      0.118240000000     0.825600000000     0.015870000000    -0.0208732  
C1045    C      0.126650000000     0.859790000000     0.028920000000    -0.0201118  
C1046    C      0.126310000000     0.859660000000     0.006080000000     0.0139849  
C1047    C      0.121440000000     0.840220000000     0.998550000000     0.0142412  
C1048    C      0.120570000000     0.836190000000     0.977240000000    -0.0645656  
C1049    C      0.125880000000     0.852520000000     0.941030000000    -0.0206639  
C1050    C      0.130780000000     0.876050000000     0.992860000000    -0.06496    
C1051    C      0.124850000000     0.852690000000     0.963970000000     0.0139448  
C1052    C      0.129910000000     0.872030000000     0.971630000000     0.0142306  
C1053    C      0.108680000000     0.754840000000     0.134340000000    -0.020297   
C1054    C      0.108710000000     0.666930000000     0.127120000000    -0.0206381  
C1055    C      0.099070000000     0.680740000000     0.160810000000    -0.0204347  
C1056    C      0.104620000000     0.697630000000     0.146580000000     0.0143874  
C1057    C      0.109990000000     0.689850000000     0.127290000000     0.0138417  
C1058    C      0.114740000000     0.703010000000     0.110830000000    -0.0643942  
C1059    C      0.117640000000     0.741580000000     0.100240000000    -0.0206005  
C1060    C      0.103890000000     0.718880000000     0.150580000000    -0.0652394  
C1061    C      0.114020000000     0.724340000000     0.114840000000     0.0138499  
C1062    C      0.108830000000     0.731990000000     0.134230000000     0.0144204  
C1063    C      0.192360000000     0.824520000000     0.111340000000    -0.0203654  
C1064    C      0.253110000000     0.885120000000     0.130140000000    -0.0205591  
C1065    C      0.266430000000     0.851090000000     0.120860000000    -0.0200663  
C1066    C      0.243580000000     0.851160000000     0.121060000000     0.0142974  
C1067    C      0.235890000000     0.870510000000     0.126430000000     0.0138351  
C1068    C      0.214560000000     0.874490000000     0.127270000000    -0.0643792  
C1069    C      0.178490000000     0.858140000000     0.121290000000    -0.0204581  
C1070    C      0.230500000000     0.834810000000     0.116040000000    -0.0651995  
C1071    C      0.201420000000     0.858020000000     0.122440000000     0.013724   
C1072    C      0.209240000000     0.838770000000     0.116890000000     0.0143587  
C1073    C      0.042720000000     0.836530000000     0.098730000000    -0.0202606  
C1074    C      0.980980000000     0.854630000000     0.159420000000    -0.0204294  
C1075    C      0.968190000000     0.844940000000     0.125490000000    -0.0197955  
C1076    C      0.991030000000     0.845480000000     0.125490000000     0.0133962  
C1077    C      0.998410000000     0.851080000000     0.144790000000     0.0134197  
C1078    C      0.019680000000     0.852300000000     0.148690000000    -0.0638115  
C1079    C      0.056040000000     0.846840000000     0.132270000000    -0.0207163  
C1080    C      0.004380000000     0.840620000000     0.109120000000    -0.063614   
C1081    C      0.033080000000     0.847610000000     0.132210000000     0.0139214  
C1082    C      0.025580000000     0.841850000000     0.113010000000     0.0139624  
C1083    C      0.218140000000     0.350810000000     0.120080000000    -0.0202518  
C1084    C      0.305950000000     0.357730000000     0.121750000000    -0.0204959  
C1085    C      0.292800000000     0.324170000000     0.111490000000    -0.0203425  
C1086    C      0.275600000000     0.338400000000     0.116890000000     0.0143417  
C1087    C      0.283000000000     0.357620000000     0.122630000000     0.0137914  
C1088    C      0.269520000000     0.374090000000     0.127340000000    -0.0644273  
C1089    C      0.230760000000     0.384770000000     0.129740000000    -0.0206045  
C1090    C      0.254420000000     0.334480000000     0.115710000000    -0.0652118  
C1091    C      0.248270000000     0.370150000000     0.126180000000     0.0138858  
C1092    C      0.240980000000     0.350840000000     0.120600000000     0.0143351  
C1093    C      0.119460000000     0.544440000000     0.138310000000    -0.0207021  
C1094    C      0.112470000000     0.456640000000     0.139920000000    -0.0201628  
C1095    C      0.146450000000     0.469210000000     0.130410000000    -0.0206096  
C1096    C      0.131840000000     0.486740000000     0.133920000000     0.0139031  
C1097    C      0.112520000000     0.479480000000     0.139410000000     0.0143257  
C1098    C      0.096170000000     0.492940000000     0.144240000000    -0.0651582  
C1099    C      0.085870000000     0.531340000000     0.148420000000    -0.0204068  
C1100    C      0.135800000000     0.507990000000     0.132780000000    -0.0644775  
C1101    C      0.100110000000     0.514110000000     0.143100000000     0.0143386  
C1102    C      0.119330000000     0.521490000000     0.137440000000     0.0138833  
C1103    C      0.114210000000     0.364150000000     0.191090000000    -0.0205367  
C1104    C      0.121610000000     0.364160000000     0.278910000000    -0.0202876  
C1105    C      0.087410000000     0.355860000000     0.266050000000    -0.0205621  
C1106    C      0.102010000000     0.359160000000     0.248640000000     0.0138668  
C1107    C      0.121460000000     0.363980000000     0.256060000000     0.0143779  
C1108    C      0.137820000000     0.368580000000     0.242750000000    -0.0652494  
C1109    C      0.148010000000     0.373140000000     0.204490000000    -0.0205382  
C1110    C      0.097940000000     0.358490000000     0.227360000000    -0.0644386  
C1111    C      0.133770000000     0.367900000000     0.221550000000     0.0144214  
C1112    C      0.114420000000     0.362890000000     0.214000000000     0.0138056  
C1113    C      0.099050000000     0.180090000000     0.848650000000    -0.020457   
C1114    C      0.117170000000     0.241700000000     0.909170000000    -0.020548   
C1115    C      0.108450000000     0.254530000000     0.875050000000    -0.0201884  
C1116    C      0.108620000000     0.231680000000     0.875170000000     0.014384   
C1117    C      0.113670000000     0.224270000000     0.894570000000     0.0138421  
C1118    C      0.114360000000     0.203000000000     0.898620000000    -0.0643195  
C1119    C      0.108440000000     0.166710000000     0.882370000000    -0.0203693  
C1120    C      0.103790000000     0.218360000000     0.858830000000    -0.0652662  
C1121    C      0.109730000000     0.189630000000     0.882170000000     0.0137473  
C1122    C      0.104490000000     0.197160000000     0.862860000000     0.014442   
C1123    C      0.117500000000     0.325920000000     0.993580000000    -0.0204901  
C1124    C      0.134800000000     0.386490000000     0.055390000000    -0.0204053  
C1125    C      0.125690000000     0.352720000000     0.068650000000    -0.0204379  
C1126    C      0.124480000000     0.352930000000     0.045730000000     0.01374    
C1127    C      0.129560000000     0.372260000000     0.038260000000     0.0143531  
C1128    C      0.130320000000     0.376300000000     0.017070000000    -0.0651802  
C1129    C      0.125940000000     0.360090000000     0.980850000000    -0.0200539  
C1130    C      0.120070000000     0.336460000000     0.032300000000    -0.0643223  
C1131    C      0.125710000000     0.359940000000     0.003700000000     0.0142495  
C1132    C      0.120820000000     0.340510000000     0.011040000000     0.013781   
C1133    C      0.980790000000     0.353950000000     0.850030000000    -0.0205108  
C1134    C      0.042310000000     0.337020000000     0.910730000000    -0.0201907  
C1135    C      0.055760000000     0.346470000000     0.877040000000    -0.0204795  
C1136    C      0.032800000000     0.347370000000     0.877170000000     0.0138741  
C1137    C      0.025230000000     0.342100000000     0.896460000000     0.0139286  
C1138    C      0.004010000000     0.341060000000     0.900420000000    -0.0635358  
C1139    C      0.967880000000     0.345150000000     0.884130000000    -0.0198143  
C1140    C      0.019460000000     0.351710000000     0.860660000000    -0.0638859  
C1141    C      0.990720000000     0.345580000000     0.884040000000     0.0134023  
C1142    C      0.998170000000     0.350680000000     0.864650000000     0.0134786  
C1143    C      0.178230000000     0.358360000000     0.888860000000    -0.020588   
C1144    C      0.266160000000     0.351220000000     0.889810000000    -0.0202221  
C1145    C      0.252980000000     0.385370000000     0.881220000000    -0.0205683  
C1146    C      0.235710000000     0.370740000000     0.884470000000     0.0138463  
C1147    C      0.243310000000     0.351320000000     0.889440000000     0.0143792  
C1148    C      0.230160000000     0.334920000000     0.893960000000    -0.0652047  
C1149    C      0.191950000000     0.324610000000     0.898120000000    -0.0203725  
C1150    C      0.214390000000     0.374740000000     0.883540000000    -0.0643858  
C1151    C      0.208910000000     0.338910000000     0.893040000000     0.0143336  
C1152    C      0.201180000000     0.358230000000     0.887870000000     0.0137949  
H1       H      0.372870000000     0.112190000000     0.326070000000     0.0465023  
H2       H      0.322790000000     0.098800000000     0.306290000000     0.0451581  
H3       H      0.331200000000     0.088240000000     0.261480000000     0.0464613  
H4       H      0.401370000000     0.106000000000     0.288560000000     0.0468708  
H5       H      0.402930000000     0.121050000000     0.244300000000     0.0474422  
H6       H      0.358050000000     0.081430000000     0.225020000000     0.0460268  
H7       H      0.381810000000     0.085710000000     0.324470000000     0.0478785  
H8       H      0.330080000000     0.071900000000     0.303820000000     0.0473916  
H9       H      0.351550000000     0.108620000000     0.225070000000     0.0469688  
H10      H      0.409760000000     0.093940000000     0.244500000000     0.0470331  
H11      H      0.540480000000     0.139090000000     0.093210000000     0.0473353  
H12      H      0.561220000000     0.125060000000     0.144880000000     0.04784    
H13      H      0.525430000000     0.104570000000     0.164400000000     0.046878   
H14      H      0.498230000000     0.122610000000     0.094300000000     0.0465387  
H15      H      0.461740000000     0.129190000000     0.121150000000     0.0460539  
H16      H      0.481240000000     0.089400000000     0.165940000000     0.0474565  
H17      H      0.543090000000     0.112230000000     0.085850000000     0.0451884  
H18      H      0.562970000000     0.098630000000     0.135890000000     0.0465531  
H19      H      0.481310000000     0.116470000000     0.172840000000     0.0470313  
H20      H      0.461930000000     0.102030000000     0.114620000000     0.0470203  
H21      H      0.752950000000     0.062890000000     0.118560000000     0.046999   
H22      H      0.772070000000     0.114460000000     0.105430000000     0.0459443  
H23      H      0.735550000000     0.141440000000     0.112240000000     0.0464397  
H24      H      0.708950000000     0.071430000000     0.130830000000     0.0468829  
H25      H      0.672750000000     0.090910000000     0.110600000000     0.0479341  
H26      H      0.690810000000     0.149970000000     0.123060000000     0.0450953  
H27      H      0.753340000000     0.069890000000     0.145600000000     0.0474841  
H28      H      0.772250000000     0.121180000000     0.132540000000     0.0469832  
H29      H      0.693040000000     0.142550000000     0.096200000000     0.0473171  
H30      H      0.671380000000     0.100010000000     0.137000000000     0.0465305  
H31      H      0.114880000000     0.090030000000     0.474200000000     0.0470524  
H32      H      0.100580000000     0.141120000000     0.494020000000     0.047446   
H33      H      0.115380000000     0.139550000000     0.538380000000     0.0469238  
H34      H      0.135660000000     0.069840000000     0.510520000000     0.0465387  
H35      H      0.125020000000     0.061010000000     0.555050000000     0.0453429  
H36      H      0.136050000000     0.120090000000     0.574260000000     0.0478254  
H37      H      0.141830000000     0.097010000000     0.474490000000     0.0460032  
H38      H      0.127450000000     0.148380000000     0.494530000000     0.0469397  
H39      H      0.109840000000     0.110780000000     0.575410000000     0.0466051  
H40      H      0.151700000000     0.068720000000     0.553050000000     0.0473841  
H41      H      0.271760000000     0.114180000000     0.405650000000     0.0459352  
H42      H      0.252640000000     0.062900000000     0.391100000000     0.0469604  
H43      H      0.208840000000     0.071770000000     0.378640000000     0.0469387  
H44      H      0.235440000000     0.141430000000     0.399120000000     0.0464588  
H45      H      0.192680000000     0.142560000000     0.414750000000     0.047361   
H46      H      0.171490000000     0.100580000000     0.372780000000     0.0465668  
H47      H      0.272350000000     0.121290000000     0.378720000000     0.0470223  
H48      H      0.253410000000     0.070220000000     0.364230000000     0.0475365  
H49      H      0.172410000000     0.091170000000     0.398980000000     0.0479608  
H50      H      0.190910000000     0.150280000000     0.388040000000     0.0451566  
H51      H      0.153710000000     0.070370000000     0.705650000000     0.0474006  
H52      H      0.102400000000     0.086390000000     0.685080000000     0.0479987  
H53      H      0.082980000000     0.106820000000     0.721440000000     0.0469655  
H54      H      0.152560000000     0.086000000000     0.748450000000     0.0465676  
H55      H      0.125260000000     0.079610000000     0.784580000000     0.0459825  
H56      H      0.081410000000     0.121240000000     0.766030000000     0.0475571  
H57      H      0.161490000000     0.097050000000     0.704040000000     0.0452112  
H58      H      0.111830000000     0.112560000000     0.684310000000     0.0465934  
H59      H      0.074050000000     0.094410000000     0.765170000000     0.0469926  
H60      H      0.132450000000     0.106500000000     0.785260000000     0.0470534  
H61      H      0.903190000000     0.119970000000     0.266040000000     0.0474652  
H62      H      0.851810000000     0.107180000000     0.285400000000     0.047098   
H63      H      0.831500000000     0.087160000000     0.248730000000     0.0465243  
H64      H      0.901560000000     0.105370000000     0.221530000000     0.0468365  
H65      H      0.872980000000     0.111910000000     0.184400000000     0.046471   
H66      H      0.830290000000     0.071300000000     0.206020000000     0.0474163  
H67      H      0.910060000000     0.092880000000     0.265330000000     0.0469184  
H68      H      0.858490000000     0.080040000000     0.284870000000     0.0459922  
H69      H      0.822980000000     0.098230000000     0.204260000000     0.0452064  
H70      H      0.881960000000     0.085430000000     0.185290000000     0.0478458  
H71      H      0.042530000000     0.113140000000     0.424460000000     0.0452713  
H72      H      0.062800000000     0.098400000000     0.374590000000     0.0466646  
H73      H      0.025510000000     0.103800000000     0.345940000000     0.0469205  
H74      H      0.997780000000     0.123450000000     0.415780000000     0.0456945  
H75      H      0.961610000000     0.102500000000     0.395600000000     0.0468162  
H76      H      0.981480000000     0.115610000000     0.337270000000     0.0468556  
H77      H      0.040080000000     0.139840000000     0.416810000000     0.0473729  
H78      H      0.061200000000     0.124640000000     0.365350000000     0.0478976  
H79      H      0.981310000000     0.088700000000     0.344460000000     0.047294   
H80      H      0.961530000000     0.129520000000     0.388770000000     0.0458621  
H81      H      0.411280000000     0.030670000000     0.137930000000     0.0454289  
H82      H      0.361370000000     0.050930000000     0.123730000000     0.0465367  
H83      H      0.332680000000     0.014030000000     0.130000000000     0.046729   
H84      H      0.402600000000     0.986270000000     0.148920000000     0.0466466  
H85      H      0.382310000000     0.949760000000     0.128680000000     0.0470306  
H86      H      0.324040000000     0.970280000000     0.142400000000     0.0466662  
H87      H      0.403840000000     0.028980000000     0.164770000000     0.0475323  
H88      H      0.352290000000     0.050120000000     0.150120000000     0.0477976  
H89      H      0.331020000000     0.969530000000     0.115370000000     0.0472315  
H90      H      0.375500000000     0.950330000000     0.155750000000     0.0459223  
H91      H      0.860160000000     0.159950000000     0.385150000000     0.0464986  
H92      H      0.875160000000     0.179400000000     0.335410000000     0.045133   
H93      H      0.886360000000     0.223820000000     0.344220000000     0.0464433  
H94      H      0.866240000000     0.197180000000     0.413930000000     0.046847   
H95      H      0.851890000000     0.241830000000     0.415510000000     0.0475038  
H96      H      0.893080000000     0.260050000000     0.371460000000     0.0458196  
H97      H      0.886420000000     0.160650000000     0.394470000000     0.04786    
H98      H      0.901920000000     0.180950000000     0.343050000000     0.047289   
H99      H      0.866110000000     0.260800000000     0.364370000000     0.046989   
H100     H      0.878810000000     0.240910000000     0.422740000000     0.0468317  
H101     H      0.868420000000     0.371250000000     0.474600000000     0.0469747  
H102     H      0.883130000000     0.320220000000     0.493720000000     0.0474483  
H103     H      0.868580000000     0.321720000000     0.538240000000     0.0468487  
H104     H      0.847790000000     0.391330000000     0.511390000000     0.0464587  
H105     H      0.858690000000     0.400220000000     0.555910000000     0.0451157  
H106     H      0.848010000000     0.341090000000     0.574560000000     0.0478828  
H107     H      0.841530000000     0.364080000000     0.475130000000     0.0459404  
H108     H      0.856300000000     0.312830000000     0.494430000000     0.0469449  
H109     H      0.874170000000     0.350540000000     0.575520000000     0.0464963  
H110     H      0.832020000000     0.392410000000     0.554100000000     0.0473017  
H111     H      0.830050000000     0.390070000000     0.706710000000     0.0472954  
H112     H      0.881440000000     0.374470000000     0.685640000000     0.0478403  
H113     H      0.900830000000     0.353660000000     0.721450000000     0.0468152  
H114     H      0.831090000000     0.373880000000     0.749130000000     0.0464845  
H115     H      0.858200000000     0.379930000000     0.785310000000     0.0460419  
H116     H      0.902320000000     0.338730000000     0.765740000000     0.0473528  
H117     H      0.822320000000     0.363400000000     0.704480000000     0.0452024  
H118     H      0.872110000000     0.348280000000     0.684260000000     0.0465773  
H119     H      0.909610000000     0.365600000000     0.765390000000     0.0468996  
H120     H      0.851230000000     0.352980000000     0.785420000000     0.0469842  
H121     H      0.911530000000     0.429280000000     0.871840000000     0.0451199  
H122     H      0.861780000000     0.409940000000     0.886870000000     0.0464823  
H123     H      0.833020000000     0.447300000000     0.880870000000     0.0468647  
H124     H      0.902730000000     0.473790000000     0.860710000000     0.0464466  
H125     H      0.882610000000     0.510770000000     0.881010000000     0.0470022  
H126     H      0.824220000000     0.491100000000     0.868360000000     0.046911   
H127     H      0.903860000000     0.430980000000     0.845100000000     0.0473128  
H128     H      0.852430000000     0.410800000000     0.860620000000     0.0478948  
H129     H      0.831480000000     0.491910000000     0.895270000000     0.0475175  
H130     H      0.875520000000     0.510120000000     0.854060000000     0.0458823  
H131     H      0.872680000000     0.612260000000     0.825630000000     0.0464937  
H132     H      0.822610000000     0.598860000000     0.805850000000     0.0451788  
H133     H      0.831040000000     0.588290000000     0.761050000000     0.0465008  
H134     H      0.901190000000     0.606070000000     0.788130000000     0.0468073  
H135     H      0.902770000000     0.621110000000     0.743880000000     0.047375   
H136     H      0.857900000000     0.581480000000     0.724590000000     0.0459901  
H137     H      0.881630000000     0.585790000000     0.824040000000     0.0478352  
H138     H      0.829910000000     0.571960000000     0.803390000000     0.0473633  
H139     H      0.851390000000     0.608670000000     0.724640000000     0.0469765  
H140     H      0.909610000000     0.594000000000     0.744080000000     0.0469201  
H141     H      0.875360000000     0.450400000000     0.655480000000     0.0458983  
H142     H      0.823910000000     0.470340000000     0.642070000000     0.0468875  
H143     H      0.832560000000     0.514060000000     0.629610000000     0.0468427  
H144     H      0.902470000000     0.486320000000     0.648610000000     0.0464418  
H145     H      0.903710000000     0.529070000000     0.664400000000     0.0472523  
H146     H      0.861260000000     0.550950000000     0.623300000000     0.0464912  
H147     H      0.882190000000     0.449790000000     0.628420000000     0.0469822  
H148     H      0.830900000000     0.469540000000     0.615050000000     0.0474391  
H149     H      0.852160000000     0.550190000000     0.649690000000     0.0477802  
H150     H      0.911150000000     0.530700000000     0.637550000000     0.0451265  
H151     H      0.886770000000     0.660710000000     0.615070000000     0.047817   
H152     H      0.901640000000     0.681630000000     0.666570000000     0.0472589  
H153     H      0.885970000000     0.724460000000     0.665340000000     0.0464181  
H154     H      0.866750000000     0.696990000000     0.595500000000     0.0468822  
H155     H      0.879310000000     0.740680000000     0.586800000000     0.0468508  
H156     H      0.865840000000     0.761150000000     0.645100000000     0.0470239  
H157     H      0.860400000000     0.660070000000     0.624220000000     0.0465289  
H158     H      0.874790000000     0.680110000000     0.674070000000     0.045169   
H159     H      0.892890000000     0.760410000000     0.638180000000     0.045844   
H160     H      0.852300000000     0.741580000000     0.593850000000     0.0475026  
H161     H      0.771640000000     0.614190000000     0.905310000000     0.0459274  
H162     H      0.752540000000     0.562890000000     0.890800000000     0.0469316  
H163     H      0.708660000000     0.571700000000     0.878550000000     0.0468336  
H164     H      0.735250000000     0.641380000000     0.898980000000     0.0464688  
H165     H      0.692550000000     0.642420000000     0.914820000000     0.0473342  
H166     H      0.671240000000     0.600450000000     0.872890000000     0.0464769  
H167     H      0.772090000000     0.621320000000     0.878380000000     0.0469807  
H168     H      0.753180000000     0.570240000000     0.863940000000     0.0474809  
H169     H      0.672290000000     0.591030000000     0.899090000000     0.0478789  
H170     H      0.690660000000     0.650180000000     0.888130000000     0.0451426  
H171     H      0.860060000000     0.061380000000     0.055400000000     0.0451735  
H172     H      0.873570000000     0.111410000000     0.075490000000     0.0464473  
H173     H      0.867010000000     0.140000000000     0.038400000000     0.0467686  
H174     H      0.849060000000     0.069880000000     0.010890000000     0.0464681  
H175     H      0.869100000000     0.090270000000     0.974370000000     0.0470494  
H176     H      0.854560000000     0.148470000000     0.994590000000     0.0468552  
H177     H      0.833120000000     0.068620000000     0.053510000000     0.0473493  
H178     H      0.847080000000     0.120330000000     0.074480000000     0.0477854  
H179     H      0.881680000000     0.141680000000     0.993950000000     0.0473995  
H180     H      0.841920000000     0.096850000000     0.974810000000     0.0459682  
H181     H      0.890720000000     0.199900000000     0.871060000000     0.0460029  
H182     H      0.877280000000     0.220000000000     0.922640000000     0.0469904  
H183     H      0.865470000000     0.264030000000     0.914050000000     0.0468795  
H184     H      0.884500000000     0.236100000000     0.844100000000     0.0464726  
H185     H      0.900950000000     0.278380000000     0.843000000000     0.0472589  
H186     H      0.859880000000     0.301250000000     0.885440000000     0.0465466  
H187     H      0.863650000000     0.200010000000     0.864380000000     0.0469226  
H188     H      0.850310000000     0.219850000000     0.915600000000     0.0473953  
H189     H      0.886190000000     0.299650000000     0.894540000000     0.0477703  
H190     H      0.874190000000     0.280840000000     0.835500000000     0.0451833  
H191     H      0.022280000000     0.104690000000     0.895380000000     0.0470916  
H192     H      0.003090000000     0.090150000000     0.844310000000     0.0475733  
H193     H      0.958450000000     0.104510000000     0.845910000000     0.0467641  
H194     H      0.985390000000     0.125060000000     0.915510000000     0.046352   
H195     H      0.941030000000     0.113900000000     0.924420000000     0.045143   
H196     H      0.921990000000     0.124800000000     0.865370000000     0.0478904  
H197     H      0.021500000000     0.131610000000     0.888210000000     0.0459343  
H198     H      0.002140000000     0.117020000000     0.837000000000     0.0469334  
H199     H      0.921360000000     0.098590000000     0.874750000000     0.0465508  
H200     H      0.942510000000     0.140620000000     0.916700000000     0.0472735  
H201     H      0.561060000000     0.624470000000     0.865590000000     0.0478893  
H202     H      0.539940000000     0.639690000000     0.917050000000     0.0472772  
H203     H      0.497610000000     0.623360000000     0.916000000000     0.0464682  
H204     H      0.525340000000     0.603690000000     0.846170000000     0.0468893  
H205     H      0.481330000000     0.615560000000     0.837480000000     0.0469509  
H206     H      0.461420000000     0.602480000000     0.895800000000     0.0469709  
H207     H      0.562610000000     0.598230000000     0.874830000000     0.0465993  
H208     H      0.542350000000     0.612980000000     0.924690000000     0.0451357  
H209     H      0.461380000000     0.629490000000     0.888960000000     0.0460598  
H210     H      0.481120000000     0.588640000000     0.844660000000     0.0473593  
H211     H      0.332130000000     0.892440000000     0.054330000000     0.0472538  
H212     H      0.348110000000     0.841080000000     0.074770000000     0.047892   
H213     H      0.368570000000     0.821710000000     0.038410000000     0.0468706  
H214     H      0.347800000000     0.891330000000     0.011600000000     0.0464301  
H215     H      0.341410000000     0.864070000000     0.975350000000     0.0458682  
H216     H      0.383020000000     0.820180000000     0.993860000000     0.0474901  
H217     H      0.358810000000     0.900210000000     0.056110000000     0.0450768  
H218     H      0.374280000000     0.850520000000     0.075680000000     0.0464882  
H219     H      0.356180000000     0.812820000000     0.994620000000     0.0469287  
H220     H      0.368310000000     0.871230000000     0.974770000000     0.0469406  
H221     H      0.359960000000     0.659960000000     0.885280000000     0.046519   
H222     H      0.375060000000     0.679410000000     0.835570000000     0.0451716  
H223     H      0.386290000000     0.723820000000     0.844410000000     0.0465141  
H224     H      0.366030000000     0.697180000000     0.914080000000     0.0468749  
H225     H      0.351700000000     0.741840000000     0.915640000000     0.0475094  
H226     H      0.392990000000     0.760040000000     0.871670000000     0.0459028  
H227     H      0.386210000000     0.660640000000     0.894640000000     0.0479417  
H228     H      0.401810000000     0.680940000000     0.843250000000     0.0473714  
H229     H      0.366040000000     0.760810000000     0.864530000000     0.0470429  
H230     H      0.378610000000     0.740900000000     0.922910000000     0.0468885  
H231     H      0.403740000000     0.528330000000     0.845910000000     0.04729    
H232     H      0.352220000000     0.549700000000     0.860780000000     0.0478171  
H233     H      0.332720000000     0.514030000000     0.881450000000     0.0468615  
H234     H      0.402640000000     0.485970000000     0.862260000000     0.0464935  
H235     H      0.375650000000     0.449880000000     0.856000000000     0.0459982  
H236     H      0.331180000000     0.469800000000     0.896520000000     0.0473726  
H237     H      0.411280000000     0.530630000000     0.872660000000     0.0452215  
H238     H      0.361360000000     0.551130000000     0.887080000000     0.0465976  
H239     H      0.324100000000     0.470070000000     0.869560000000     0.046976   
H240     H      0.382390000000     0.449850000000     0.883050000000     0.0469362  
H241     H      0.107820000000     0.950360000000     0.855490000000     0.0459855  
H242     H      0.159380000000     0.969590000000     0.868810000000     0.0467847  
H243     H      0.150800000000     0.013650000000     0.880880000000     0.0467818  
H244     H      0.080840000000     0.986910000000     0.862040000000     0.0466091  
H245     H      0.079770000000     0.029330000000     0.845830000000     0.0475639  
H246     H      0.122210000000     0.051250000000     0.886770000000     0.0465209  
H247     H      0.101080000000     0.950350000000     0.882580000000     0.0470088  
H248     H      0.152320000000     0.969340000000     0.895810000000     0.047259   
H249     H      0.131360000000     0.049710000000     0.860410000000     0.0478701  
H250     H      0.072270000000     0.031730000000     0.872640000000     0.0453754  
H251     H      0.293270000000     0.810990000000     0.887130000000     0.0451198  
H252     H      0.312720000000     0.860960000000     0.873230000000     0.0464756  
H253     H      0.275100000000     0.889520000000     0.879210000000     0.0467837  
H254     H      0.248470000000     0.819500000000     0.897720000000     0.0464964  
H255     H      0.211850000000     0.839720000000     0.877230000000     0.0469687  
H256     H      0.231040000000     0.898030000000     0.891270000000     0.0469023  
H257     H      0.290910000000     0.818450000000     0.913970000000     0.0473196  
H258     H      0.311210000000     0.870080000000     0.899620000000     0.0478283  
H259     H      0.230770000000     0.891010000000     0.864230000000     0.0473445  
H260     H      0.211890000000     0.846450000000     0.904350000000     0.0459633  
H261     H      0.322760000000     0.598320000000     0.704450000000     0.0451521  
H262     H      0.372750000000     0.612020000000     0.684600000000     0.0464914  
H263     H      0.401360000000     0.605430000000     0.721720000000     0.0467946  
H264     H      0.331300000000     0.587190000000     0.748920000000     0.0465171  
H265     H      0.351620000000     0.607170000000     0.785610000000     0.0470383  
H266     H      0.409870000000     0.592880000000     0.765500000000     0.0468314  
H267     H      0.330070000000     0.571390000000     0.706200000000     0.0473266  
H268     H      0.381740000000     0.585540000000     0.685470000000     0.0478556  
H269     H      0.403000000000     0.619980000000     0.766240000000     0.0474288  
H270     H      0.358310000000     0.580030000000     0.785050000000     0.0459067  
H271     H      0.381730000000     0.641640000000     0.494150000000     0.0473979  
H272     H      0.369130000000     0.590230000000     0.474590000000     0.0470333  
H273     H      0.349010000000     0.569880000000     0.511080000000     0.0464813  
H274     H      0.366970000000     0.640000000000     0.538580000000     0.0468302  
H275     H      0.373440000000     0.611440000000     0.575680000000     0.0465235  
H276     H      0.332990000000     0.568660000000     0.553690000000     0.0473224  
H277     H      0.354620000000     0.648450000000     0.494740000000     0.0468739  
H278     H      0.341970000000     0.596820000000     0.474970000000     0.0459451  
H279     H      0.359920000000     0.561400000000     0.555610000000     0.0451519  
H280     H      0.346950000000     0.620370000000     0.574640000000     0.0478346  
H281     H      0.211370000000     0.621000000000     0.377560000000     0.0469979  
H282     H      0.231300000000     0.569840000000     0.363640000000     0.0473581  
H283     H      0.275600000000     0.571360000000     0.378630000000     0.0468148  
H284     H      0.247570000000     0.641170000000     0.398410000000     0.0465574  
H285     H      0.292140000000     0.649910000000     0.387940000000     0.0452268  
H286     H      0.311370000000     0.590820000000     0.399360000000     0.0477897  
H287     H      0.211530000000     0.614090000000     0.404550000000     0.0460151  
H288     H      0.231700000000     0.562640000000     0.390550000000     0.0468947  
H289     H      0.312620000000     0.600060000000     0.373110000000     0.0465652  
H290     H      0.290040000000     0.642250000000     0.414640000000     0.0473227  
H291     H      0.135950000000     0.619940000000     0.435120000000     0.047954   
H292     H      0.151910000000     0.568590000000     0.455550000000     0.0473254  
H293     H      0.136150000000     0.569660000000     0.498260000000     0.0465312  
H294     H      0.115410000000     0.639290000000     0.471440000000     0.046914   
H295     H      0.127700000000     0.648160000000     0.515260000000     0.0469267  
H296     H      0.115550000000     0.589730000000     0.535050000000     0.0470367  
H297     H      0.109790000000     0.610500000000     0.434140000000     0.0466108  
H298     H      0.125240000000     0.560800000000     0.453720000000     0.0451954  
H299     H      0.142450000000     0.596900000000     0.534530000000     0.0459787  
H300     H      0.100870000000     0.640780000000     0.515970000000     0.0475008  
H301     H      0.062810000000     0.598610000000     0.635400000000     0.0465616  
H302     H      0.042930000000     0.612230000000     0.585370000000     0.0451612  
H303     H      0.998070000000     0.622660000000     0.593840000000     0.0456854  
H304     H      0.025280000000     0.604580000000     0.663930000000     0.0468548  
H305     H      0.981090000000     0.589450000000     0.665480000000     0.0472285  
H306     H      0.961600000000     0.629270000000     0.620710000000     0.045824   
H307     H      0.061080000000     0.625040000000     0.644400000000     0.0478896  
H308     H      0.040340000000     0.639090000000     0.592730000000     0.0473567  
H309     H      0.961760000000     0.602110000000     0.614170000000     0.0467932  
H310     H      0.981180000000     0.616520000000     0.672390000000     0.0468106  
H311     H      0.252820000000     0.562940000000     0.618570000000     0.0469621  
H312     H      0.271960000000     0.614530000000     0.605490000000     0.0459799  
H313     H      0.235380000000     0.641470000000     0.612110000000     0.046486   
H314     H      0.208760000000     0.571450000000     0.630630000000     0.0468903  
H315     H      0.172640000000     0.590880000000     0.610210000000     0.047865   
H316     H      0.190590000000     0.649970000000     0.622700000000     0.045129   
H317     H      0.253090000000     0.569970000000     0.645610000000     0.0474075  
H318     H      0.272000000000     0.621260000000     0.632610000000     0.0469673  
H319     H      0.192930000000     0.642510000000     0.595860000000     0.0473061  
H320     H      0.171140000000     0.599990000000     0.636610000000     0.0465193  
H321     H      0.691880000000     0.311050000000     0.622250000000     0.0452178  
H322     H      0.671420000000     0.360880000000     0.637110000000     0.0465813  
H323     H      0.708390000000     0.389620000000     0.631390000000     0.0468831  
H324     H      0.736410000000     0.319810000000     0.611560000000     0.0464713  
H325     H      0.772680000000     0.340050000000     0.632200000000     0.0469636  
H326     H      0.752230000000     0.398370000000     0.619250000000     0.0469481  
H327     H      0.693880000000     0.318660000000     0.595530000000     0.0473392  
H328     H      0.672550000000     0.370100000000     0.610850000000     0.0478634  
H329     H      0.752740000000     0.391210000000     0.646160000000     0.0474214  
H330     H      0.772380000000     0.346940000000     0.605210000000     0.0459451  
H331     H      0.381420000000     0.374560000000     0.825010000000     0.0478786  
H332     H      0.330110000000     0.390600000000     0.804450000000     0.0473433  
H333     H      0.331240000000     0.375000000000     0.761640000000     0.0464828  
H334     H      0.400830000000     0.354140000000     0.788630000000     0.0468274  
H335     H      0.409750000000     0.366580000000     0.744900000000     0.0468814  
H336     H      0.351340000000     0.354520000000     0.724810000000     0.0470043  
H337     H      0.371980000000     0.348390000000     0.825760000000     0.0465329  
H338     H      0.322320000000     0.363930000000     0.806050000000     0.0452076  
H339     H      0.358540000000     0.381410000000     0.725510000000     0.0458844  
H340     H      0.402380000000     0.339750000000     0.744030000000     0.0474803  
H341     H      0.561790000000     0.336220000000     0.644730000000     0.0478948  
H342     H      0.541290000000     0.320370000000     0.593410000000     0.0473472  
H343     H      0.498400000000     0.335910000000     0.594580000000     0.0464894  
H344     H      0.525330000000     0.356510000000     0.664180000000     0.0468179  
H345     H      0.481640000000     0.343980000000     0.673090000000     0.0468603  
H346     H      0.461500000000     0.356270000000     0.614700000000     0.0470003  
H347     H      0.562430000000     0.362430000000     0.635330000000     0.0465261  
H348     H      0.542770000000     0.347080000000     0.585660000000     0.0451823  
H349     H      0.462300000000     0.329350000000     0.621890000000     0.0458705  
H350     H      0.480680000000     0.370850000000     0.665760000000     0.047473   
H351     H      0.404020000000     0.431680000000     0.664190000000     0.04731    
H352     H      0.352440000000     0.411300000000     0.649610000000     0.0479147  
H353     H      0.333020000000     0.447340000000     0.629090000000     0.0469252  
H354     H      0.402980000000     0.474070000000     0.647910000000     0.0464415  
H355     H      0.376020000000     0.510640000000     0.654410000000     0.0459302  
H356     H      0.331530000000     0.491620000000     0.614090000000     0.0474176  
H357     H      0.411540000000     0.429230000000     0.637380000000     0.0451197  
H358     H      0.361600000000     0.409700000000     0.623260000000     0.0465609  
H359     H      0.324450000000     0.491420000000     0.641100000000     0.0469758  
H360     H      0.382770000000     0.510620000000     0.627320000000     0.0469236  
H361     H      0.351350000000     0.852940000000     0.285640000000     0.0469185  
H362     H      0.402440000000     0.838710000000     0.265960000000     0.0474041  
H363     H      0.400950000000     0.853630000000     0.221670000000     0.046857   
H364     H      0.331200000000     0.873840000000     0.249350000000     0.0464563  
H365     H      0.322440000000     0.863340000000     0.204700000000     0.045174   
H366     H      0.381550000000     0.874420000000     0.185840000000     0.0478358  
H367     H      0.358310000000     0.879900000000     0.285520000000     0.0459781  
H368     H      0.409720000000     0.865570000000     0.265610000000     0.0469457  
H369     H      0.372230000000     0.848230000000     0.184480000000     0.0465721  
H370     H      0.330150000000     0.890020000000     0.206920000000     0.0472574  
H371     H      0.562490000000     0.862010000000     0.374390000000     0.0464841  
H372     H      0.542660000000     0.847920000000     0.424290000000     0.0451302  
H373     H      0.498270000000     0.836680000000     0.415650000000     0.0464428  
H374     H      0.525450000000     0.855490000000     0.345720000000     0.0468635  
H375     H      0.480850000000     0.869910000000     0.344070000000     0.0474567  
H376     H      0.462220000000     0.829580000000     0.388550000000     0.0458664  
H377     H      0.561810000000     0.835590000000     0.365300000000     0.047869   
H378     H      0.541100000000     0.821030000000     0.416890000000     0.0473216  
H379     H      0.461490000000     0.856670000000     0.395380000000     0.0470128  
H380     H      0.481750000000     0.842860000000     0.337110000000     0.0468522  
H381     H      0.386300000000     0.799600000000     0.394740000000     0.0478432  
H382     H      0.401130000000     0.778340000000     0.343220000000     0.0473028  
H383     H      0.384720000000     0.736050000000     0.344300000000     0.0465013  
H384     H      0.365580000000     0.763970000000     0.414230000000     0.0468431  
H385     H      0.377430000000     0.719950000000     0.422840000000     0.0469678  
H386     H      0.363890000000     0.699940000000     0.364560000000     0.0469946  
H387     H      0.359990000000     0.801180000000     0.385610000000     0.0465675  
H388     H      0.374380000000     0.780780000000     0.335680000000     0.045175   
H389     H      0.390950000000     0.699850000000     0.371280000000     0.0460861  
H390     H      0.350460000000     0.719780000000     0.415770000000     0.04736    
H391     H      0.375680000000     0.010090000000     0.354500000000     0.0459462  
H392     H      0.324370000000     0.991060000000     0.368790000000     0.0468245  
H393     H      0.333160000000     0.947240000000     0.381210000000     0.0468461  
H394     H      0.402880000000     0.973730000000     0.361070000000     0.0462125  
H395     H      0.403980000000     0.930940000000     0.345370000000     0.0472679  
H396     H      0.361910000000     0.909870000000     0.387130000000     0.0465004  
H397     H      0.382770000000     0.010690000000     0.381450000000     0.0470331  
H398     H      0.331650000000     0.991830000000     0.395690000000     0.0473911  
H399     H      0.352550000000     0.910750000000     0.360890000000     0.0479015  
H400     H      0.411660000000     0.929210000000     0.372110000000     0.0450876  
H401     H      0.861470000000     0.051110000000     0.386830000000     0.0465775  
H402     H      0.911400000000     0.030610000000     0.372460000000     0.0453808  
H403     H      0.902760000000     0.985970000000     0.361970000000     0.0466036  
H404     H      0.832820000000     0.014040000000     0.381090000000     0.0467382  
H405     H      0.831230000000     0.969780000000     0.396090000000     0.0471792  
H406     H      0.875750000000     0.949900000000     0.355600000000     0.0459642  
H407     H      0.852370000000     0.049730000000     0.360510000000     0.0478393  
H408     H      0.903900000000     0.028360000000     0.345690000000     0.0475007  
H409     H      0.882460000000     0.949830000000     0.382660000000     0.0469325  
H410     H      0.824200000000     0.970090000000     0.369110000000     0.0467598  
H411     H      0.693670000000     0.818710000000     0.414180000000     0.0472289  
H412     H      0.672510000000     0.870350000000     0.399960000000     0.0477744  
H413     H      0.708470000000     0.889970000000     0.379790000000     0.0468051  
H414     H      0.736250000000     0.819920000000     0.398100000000     0.0464808  
H415     H      0.772280000000     0.846910000000     0.404950000000     0.0459378  
H416     H      0.752880000000     0.891610000000     0.364980000000     0.0473765  
H417     H      0.691740000000     0.811360000000     0.387290000000     0.0451306  
H418     H      0.671460000000     0.861360000000     0.373520000000     0.0465232  
H419     H      0.752310000000     0.898490000000     0.392050000000     0.0468664  
H420     H      0.772650000000     0.840250000000     0.377820000000     0.0470179  
H421     H      0.847900000000     0.840930000000     0.435450000000     0.0478298  
H422     H      0.832240000000     0.892310000000     0.456630000000     0.0472285  
H423     H      0.848260000000     0.891210000000     0.499160000000     0.0463933  
H424     H      0.868560000000     0.821480000000     0.471330000000     0.0468176  
H425     H      0.856470000000     0.812680000000     0.515190000000     0.046937   
H426     H      0.869030000000     0.871040000000     0.535490000000     0.046907   
H427     H      0.874100000000     0.850240000000     0.434290000000     0.0465197  
H428     H      0.858920000000     0.900020000000     0.454620000000     0.0450976  
H429     H      0.842080000000     0.864040000000     0.535200000000     0.0459604  
H430     H      0.883340000000     0.819940000000     0.515700000000     0.0473868  
H431     H      0.591000000000     0.200930000000     0.138680000000     0.0459287  
H432     H      0.605320000000     0.220070000000     0.087410000000     0.0468623  
H433     H      0.617880000000     0.263790000000     0.096230000000     0.046829   
H434     H      0.597700000000     0.237150000000     0.165930000000     0.0464628  
H435     H      0.582140000000     0.280030000000     0.167080000000     0.0473764  
H436     H      0.623950000000     0.301010000000     0.125010000000     0.0464856  
H437     H      0.617960000000     0.200170000000     0.145790000000     0.0470713  
H438     H      0.632240000000     0.219150000000     0.094660000000     0.0474862  
H439     H      0.597690000000     0.300330000000     0.115680000000     0.0478869  
H440     H      0.608900000000     0.281570000000     0.174740000000     0.0452059  
H441     H      0.652830000000     0.491160000000     0.113870000000     0.0473385  
H442     H      0.601610000000     0.511120000000     0.127320000000     0.0469936  
H443     H      0.581340000000     0.475010000000     0.148100000000     0.0464911  
H444     H      0.651270000000     0.446930000000     0.128940000000     0.0468318  
H445     H      0.622620000000     0.409850000000     0.123290000000     0.0465787  
H446     H      0.580220000000     0.432640000000     0.164440000000     0.0472882  
H447     H      0.659890000000     0.490890000000     0.140840000000     0.0469076  
H448     H      0.608350000000     0.511090000000     0.154370000000     0.0460324  
H449     H      0.572700000000     0.430370000000     0.137680000000     0.0451906  
H450     H      0.631740000000     0.411260000000     0.149600000000     0.0478108  
H451     H      0.614800000000     0.589870000000     0.974470000000     0.0469378  
H452     H      0.600500000000     0.640960000000     0.994270000000     0.0474114  
H453     H      0.615380000000     0.639450000000     0.038610000000     0.0468347  
H454     H      0.635660000000     0.569730000000     0.010770000000     0.0464878  
H455     H      0.625100000000     0.560930000000     0.055330000000     0.0451954  
H456     H      0.636120000000     0.620030000000     0.074470000000     0.0478179  
H457     H      0.641750000000     0.596870000000     0.974710000000     0.045976   
H458     H      0.627370000000     0.648250000000     0.994730000000     0.0469452  
H459     H      0.609930000000     0.610710000000     0.075660000000     0.0465381  
H460     H      0.651780000000     0.568660000000     0.053280000000     0.0472952  
H461     H      0.730730000000     0.391060000000     0.364580000000     0.0474324  
H462     H      0.711830000000     0.339760000000     0.377650000000     0.0469912  
H463     H      0.748540000000     0.319520000000     0.397950000000     0.0464719  
H464     H      0.775120000000     0.389530000000     0.379340000000     0.0468062  
H465     H      0.812690000000     0.360950000000     0.373170000000     0.0464433  
H466     H      0.791050000000     0.318420000000     0.413980000000     0.0473688  
H467     H      0.731120000000     0.398060000000     0.391620000000     0.046921   
H468     H      0.712010000000     0.346490000000     0.404760000000     0.0459345  
H469     H      0.793280000000     0.310990000000     0.387120000000     0.0451546  
H470     H      0.811320000000     0.370060000000     0.399570000000     0.0478256  
H471     H      0.610450000000     0.349550000000     0.434630000000     0.0465285  
H472     H      0.623960000000     0.399580000000     0.454720000000     0.0451602  
H473     H      0.634880000000     0.391080000000     0.499250000000     0.0465122  
H474     H      0.616930000000     0.320970000000     0.471720000000     0.0468648  
H475     H      0.602190000000     0.319310000000     0.516150000000     0.0474387  
H476     H      0.641940000000     0.364120000000     0.535350000000     0.0459881  
H477     H      0.636940000000     0.340620000000     0.435680000000     0.0478259  
H478     H      0.650890000000     0.392320000000     0.456650000000     0.0473151  
H479     H      0.614770000000     0.370710000000     0.535740000000     0.0470627  
H480     H      0.629300000000     0.312500000000     0.515560000000     0.0469006  
H481     H      0.653820000000     0.389610000000     0.304130000000     0.0472738  
H482     H      0.602130000000     0.375500000000     0.324850000000     0.047822   
H483     H      0.582520000000     0.355590000000     0.288610000000     0.0468163  
H484     H      0.652600000000     0.373770000000     0.261420000000     0.0464639  
H485     H      0.625610000000     0.380920000000     0.225280000000     0.0459004  
H486     H      0.580890000000     0.341010000000     0.244090000000     0.0474659  
H487     H      0.661110000000     0.362680000000     0.305900000000     0.0451198  
H488     H      0.611110000000     0.349020000000     0.325750000000     0.0464787  
H489     H      0.574040000000     0.368110000000     0.244820000000     0.0468864  
H490     H      0.632290000000     0.353780000000     0.224740000000     0.0470161  
H491     H      0.421540000000     0.598500000000     0.374980000000     0.046485   
H492     H      0.441190000000     0.613840000000     0.424650000000     0.0451819  
H493     H      0.485550000000     0.625050000000     0.415740000000     0.0464969  
H494     H      0.458640000000     0.604480000000     0.346130000000     0.0468499  
H495     H      0.503290000000     0.590170000000     0.344530000000     0.0475117  
H496     H      0.521650000000     0.631660000000     0.388430000000     0.0458735  
H497     H      0.422160000000     0.624720000000     0.365590000000     0.0478628  
H498     H      0.442650000000     0.640560000000     0.416930000000     0.0473251  
H499     H      0.522460000000     0.604740000000     0.395610000000     0.0470047  
H500     H      0.502310000000     0.617050000000     0.337230000000     0.0468856  
H501     H      0.574250000000     0.594460000000     0.265410000000     0.0469107  
H502     H      0.625450000000     0.579630000000     0.284820000000     0.0459273  
H503     H      0.652760000000     0.586000000000     0.248700000000     0.0464569  
H504     H      0.583190000000     0.606870000000     0.221690000000     0.0468725  
H505     H      0.602590000000     0.586430000000     0.185310000000     0.0478597  
H506     H      0.661690000000     0.597060000000     0.204290000000     0.0452008  
H507     H      0.581630000000     0.621290000000     0.266280000000     0.0475045  
H508     H      0.632660000000     0.606520000000     0.285510000000     0.0470096  
H509     H      0.653900000000     0.570380000000     0.205880000000     0.0473321  
H510     H      0.612040000000     0.612600000000     0.184570000000     0.0465206  
H511     H      0.652340000000     0.469390000000     0.396290000000     0.0474099  
H512     H      0.601120000000     0.450420000000     0.383010000000     0.0469426  
H513     H      0.580940000000     0.486970000000     0.362390000000     0.0464745  
H514     H      0.650890000000     0.513680000000     0.381290000000     0.0469023  
H515     H      0.622320000000     0.551320000000     0.387080000000     0.0465413  
H516     H      0.579930000000     0.529360000000     0.346110000000     0.0473243  
H517     H      0.659450000000     0.469610000000     0.369300000000     0.0469594  
H518     H      0.607890000000     0.450390000000     0.355930000000     0.0459541  
H519     H      0.572390000000     0.531810000000     0.372900000000     0.0451361  
H520     H      0.631500000000     0.549730000000     0.360740000000     0.0479015  
H521     H      0.633360000000     0.741460000000     0.415510000000     0.0474069  
H522     H      0.620250000000     0.760640000000     0.364280000000     0.0469424  
H523     H      0.599580000000     0.724250000000     0.344040000000     0.0464872  
H524     H      0.618260000000     0.697240000000     0.414030000000     0.0468261  
H525     H      0.624030000000     0.659650000000     0.385460000000     0.0465035  
H526     H      0.583180000000     0.681950000000     0.343000000000     0.0473162  
H527     H      0.606350000000     0.741350000000     0.422570000000     0.0470092  
H528     H      0.593150000000     0.760780000000     0.370970000000     0.04602    
H529     H      0.609990000000     0.679390000000     0.335510000000     0.0451269  
H530     H      0.597670000000     0.661360000000     0.394590000000     0.0478664  
H531     H      0.858680000000     0.881310000000     0.225100000000     0.045829   
H532     H      0.909880000000     0.866480000000     0.244520000000     0.0468118  
H533     H      0.900930000000     0.854080000000     0.288250000000     0.0468013  
H534     H      0.831360000000     0.874950000000     0.261220000000     0.0464104  
H535     H      0.830210000000     0.890590000000     0.304030000000     0.0472299  
H536     H      0.872070000000     0.848370000000     0.325370000000     0.0464929  
H537     H      0.851470000000     0.854420000000     0.224420000000     0.0469678  
H538     H      0.902490000000     0.839650000000     0.243670000000     0.047443   
H539     H      0.881510000000     0.874530000000     0.324620000000     0.0478266  
H540     H      0.822420000000     0.863910000000     0.305630000000     0.0451309  
H541     H      0.904210000000     0.931560000000     0.163850000000     0.047215   
H542     H      0.852630000000     0.911200000000     0.149230000000     0.0478333  
H543     H      0.833210000000     0.947260000000     0.128750000000     0.0468311  
H544     H      0.903170000000     0.973960000000     0.147630000000     0.0462051  
H545     H      0.876200000000     0.010530000000     0.154170000000     0.0459245  
H546     H      0.831730000000     0.991570000000     0.113810000000     0.0473094  
H547     H      0.911730000000     0.929140000000     0.137040000000     0.0450002  
H548     H      0.861800000000     0.909630000000     0.122880000000     0.0464351  
H549     H      0.824640000000     0.991320000000     0.140810000000     0.046882   
H550     H      0.882960000000     0.010540000000     0.127080000000     0.0469066  
H551     H      0.440910000000     0.848690000000     0.924510000000     0.0451363  
H552     H      0.421050000000     0.862330000000     0.874480000000     0.0465034  
H553     H      0.458580000000     0.856370000000     0.845960000000     0.0468438  
H554     H      0.485770000000     0.838260000000     0.916050000000     0.0464426  
H555     H      0.522090000000     0.858810000000     0.895730000000     0.0469717  
H556     H      0.502680000000     0.844420000000     0.837500000000     0.0469728  
H557     H      0.443490000000     0.821830000000     0.917140000000     0.0473469  
H558     H      0.422770000000     0.835910000000     0.865470000000     0.047863   
H559     H      0.502780000000     0.871490000000     0.844420000000     0.0473639  
H560     H      0.522240000000     0.831650000000     0.889180000000     0.0460234  
H561     H      0.617960000000     0.699770000000     0.864850000000     0.0470513  
H562     H      0.631490000000     0.719330000000     0.916110000000     0.0474689  
H563     H      0.617050000000     0.763930000000     0.914440000000     0.0468921  
H564     H      0.597860000000     0.736460000000     0.844590000000     0.046485   
H565     H      0.609060000000     0.780800000000     0.835870000000     0.045173   
H566     H      0.597050000000     0.800220000000     0.894850000000     0.0478405  
H567     H      0.590910000000     0.700520000000     0.871750000000     0.0458928  
H568     H      0.604480000000     0.720240000000     0.923140000000     0.0468778  
H569     H      0.623430000000     0.800840000000     0.885720000000     0.0465012  
H570     H      0.582210000000     0.779300000000     0.843340000000     0.0473192  
H571     H      0.791240000000     0.818520000000     0.595130000000     0.0473263  
H572     H      0.811520000000     0.869910000000     0.610840000000     0.0478283  
H573     H      0.775160000000     0.889260000000     0.631370000000     0.0468255  
H574     H      0.748550000000     0.819580000000     0.610970000000     0.0464535  
H575     H      0.712170000000     0.846790000000     0.604620000000     0.045967   
H576     H      0.730650000000     0.890740000000     0.645980000000     0.0474138  
H577     H      0.793150000000     0.810770000000     0.621830000000     0.0451531  
H578     H      0.812580000000     0.860500000000     0.637040000000     0.0464475  
H579     H      0.731290000000     0.898090000000     0.619110000000     0.0468726  
H580     H      0.711710000000     0.839670000000     0.631550000000     0.0470141  
H581     H      0.601670000000     0.819730000000     0.493940000000     0.0474628  
H582     H      0.614330000000     0.871090000000     0.474920000000     0.047032   
H583     H      0.634570000000     0.891390000000     0.511530000000     0.0464486  
H584     H      0.616520000000     0.821280000000     0.538290000000     0.0468193  
H585     H      0.610230000000     0.849810000000     0.575820000000     0.0464674  
H586     H      0.650710000000     0.892520000000     0.554010000000     0.0473338  
H587     H      0.628760000000     0.812840000000     0.494290000000     0.0469591  
H588     H      0.641490000000     0.864490000000     0.475050000000     0.0459757  
H589     H      0.623810000000     0.899840000000     0.556280000000     0.0451148  
H590     H      0.636690000000     0.840810000000     0.574410000000     0.0478724  
H591     H      0.625950000000     0.879470000000     0.785330000000     0.0459435  
H592     H      0.574250000000     0.866940000000     0.765850000000     0.0469623  
H593     H      0.582650000000     0.854900000000     0.721790000000     0.0468092  
H594     H      0.652800000000     0.872690000000     0.748870000000     0.0464491  
H595     H      0.653930000000     0.889050000000     0.706530000000     0.0472532  
H596     H      0.611150000000     0.848730000000     0.684290000000     0.0464747  
H597     H      0.632470000000     0.852290000000     0.785280000000     0.0469376  
H598     H      0.581090000000     0.839840000000     0.766040000000     0.0474266  
H599     H      0.602200000000     0.875210000000     0.685880000000     0.0477952  
H600     H      0.661220000000     0.862150000000     0.704070000000     0.0451064  
H601     H      0.022380000000     0.858490000000     0.614110000000     0.0469424  
H602     H      0.002690000000     0.872300000000     0.665250000000     0.0473689  
H603     H      0.958470000000     0.857230000000     0.663760000000     0.0467017  
H604     H      0.986180000000     0.837590000000     0.593910000000     0.0462392  
H605     H      0.941440000000     0.847950000000     0.585250000000     0.0450822  
H606     H      0.922750000000     0.836430000000     0.644350000000     0.0478198  
H607     H      0.022430000000     0.831470000000     0.620920000000     0.0460329  
H608     H      0.002490000000     0.845380000000     0.672430000000     0.0469978  
H609     H      0.921200000000     0.862680000000     0.635120000000     0.0465025  
H610     H      0.943860000000     0.821240000000     0.592870000000     0.0472242  
H611     H      0.073960000000     0.868050000000     0.744390000000     0.046942   
H612     H      0.125520000000     0.880910000000     0.724820000000     0.0458624  
H613     H      0.152530000000     0.873770000000     0.760940000000     0.0464529  
H614     H      0.082480000000     0.855540000000     0.788170000000     0.0468676  
H615     H      0.102090000000     0.875450000000     0.824410000000     0.0477968  
H616     H      0.161070000000     0.862670000000     0.805410000000     0.0451305  
H617     H      0.080830000000     0.840960000000     0.743650000000     0.0475361  
H618     H      0.132210000000     0.853760000000     0.724270000000     0.0470049  
H619     H      0.153760000000     0.889600000000     0.803660000000     0.0472761  
H620     H      0.111090000000     0.848970000000     0.825280000000     0.0464715  
H621     H      0.132100000000     0.719120000000     0.594200000000     0.04753    
H622     H      0.117800000000     0.700140000000     0.645320000000     0.0470993  
H623     H      0.097540000000     0.737120000000     0.665460000000     0.0465224  
H624     H      0.117750000000     0.763770000000     0.595780000000     0.0468907  
H625     H      0.123820000000     0.800990000000     0.624570000000     0.0464827  
H626     H      0.081990000000     0.780000000000     0.666620000000     0.0473885  
H627     H      0.105190000000     0.720050000000     0.586950000000     0.0469265  
H628     H      0.090850000000     0.700900000000     0.638200000000     0.0459832  
H629     H      0.108750000000     0.781530000000     0.674280000000     0.0452065  
H630     H      0.097560000000     0.800310000000     0.615220000000     0.0479076  
H631     H      0.152680000000     0.991190000000     0.613530000000     0.047296   
H632     H      0.101450000000     0.011130000000     0.626990000000     0.0470271  
H633     H      0.081180000000     0.974980000000     0.647720000000     0.0462569  
H634     H      0.151120000000     0.946930000000     0.628550000000     0.0468305  
H635     H      0.122480000000     0.909850000000     0.622850000000     0.0465273  
H636     H      0.080070000000     0.932600000000     0.664020000000     0.0472461  
H637     H      0.159740000000     0.990880000000     0.640500000000     0.0468678  
H638     H      0.108180000000     0.011060000000     0.654040000000     0.046083   
H639     H      0.072550000000     0.930340000000     0.637260000000     0.0451621  
H640     H      0.131600000000     0.911240000000     0.649160000000     0.047765   
H641     H      0.333280000000     0.068480000000     0.456350000000     0.0474006  
H642     H      0.347310000000     0.120170000000     0.435920000000     0.0478248  
H643     H      0.367490000000     0.139700000000     0.472020000000     0.0468649  
H644     H      0.349430000000     0.069610000000     0.498820000000     0.046523   
H645     H      0.342520000000     0.096530000000     0.535290000000     0.0459807  
H646     H      0.382350000000     0.141270000000     0.516370000000     0.0474579  
H647     H      0.360180000000     0.061140000000     0.454070000000     0.0451992  
H648     H      0.373770000000     0.111160000000     0.434500000000     0.04646    
H649     H      0.355260000000     0.148170000000     0.516020000000     0.0469667  
H650     H      0.369680000000     0.089920000000     0.535420000000     0.0470334  
H651     H      0.359940000000     0.301400000000     0.624820000000     0.0465503  
H652     H      0.373910000000     0.281670000000     0.674800000000     0.0451434  
H653     H      0.384320000000     0.236800000000     0.666280000000     0.0465244  
H654     H      0.365740000000     0.263800000000     0.596270000000     0.0468739  
H655     H      0.350640000000     0.219590000000     0.594770000000     0.0474391  
H656     H      0.390790000000     0.200260000000     0.639370000000     0.0460256  
H657     H      0.386310000000     0.299670000000     0.615720000000     0.0478907  
H658     H      0.400720000000     0.279090000000     0.667340000000     0.0473365  
H659     H      0.363670000000     0.200410000000     0.646020000000     0.0469779  
H660     H      0.377660000000     0.219690000000     0.587750000000     0.0470219  
H661     H      0.230970000000     0.069350000000     0.644850000000     0.0474947  
H662     H      0.211220000000     0.120720000000     0.631960000000     0.0470093  
H663     H      0.247690000000     0.141090000000     0.611870000000     0.0464688  
H664     H      0.275440000000     0.071040000000     0.630230000000     0.0468935  
H665     H      0.312400000000     0.099670000000     0.636690000000     0.0465257  
H666     H      0.290350000000     0.142350000000     0.595990000000     0.0473737  
H667     H      0.231670000000     0.062500000000     0.617770000000     0.0469659  
H668     H      0.211720000000     0.114070000000     0.604830000000     0.0459273  
H669     H      0.292150000000     0.149650000000     0.622890000000     0.0452089  
H670     H      0.311490000000     0.090700000000     0.610240000000     0.0478478  
H671     H      0.521760000000     0.131360000000     0.621790000000     0.0458711  
H672     H      0.502220000000     0.118110000000     0.673250000000     0.0468653  
H673     H      0.458500000000     0.105530000000     0.664640000000     0.0469065  
H674     H      0.485690000000     0.124290000000     0.594700000000     0.0465109  
H675     H      0.442880000000     0.140000000000     0.593460000000     0.0473473  
H676     H      0.421460000000     0.099040000000     0.635970000000     0.0465541  
H677     H      0.522450000000     0.104260000000     0.614970000000     0.0470434  
H678     H      0.503080000000     0.091060000000     0.666290000000     0.0475013  
H679     H      0.422150000000     0.125470000000     0.645050000000     0.0478487  
H680     H      0.441310000000     0.113100000000     0.586070000000     0.0452343  
H681     H      0.601220000000     0.950250000000     0.628920000000     0.0470318  
H682     H      0.652340000000     0.969120000000     0.614710000000     0.0473033  
H683     H      0.650820000000     0.013700000000     0.629190000000     0.0467342  
H684     H      0.581100000000     0.987200000000     0.649300000000     0.046594   
H685     H      0.572320000000     0.031720000000     0.638250000000     0.0453913  
H686     H      0.631410000000     0.050190000000     0.649500000000     0.0479216  
H687     H      0.608300000000     0.950850000000     0.655880000000     0.0459169  
H688     H      0.659610000000     0.969890000000     0.641610000000     0.0467041  
H689     H      0.622070000000     0.051070000000     0.623250000000     0.0465216  
H690     H      0.579990000000     0.029990000000     0.665000000000     0.0475668  
H691     H      0.582850000000     0.182600000000     0.667140000000     0.0473274  
H692     H      0.597630000000     0.161330000000     0.615600000000     0.0478054  
H693     H      0.618340000000     0.196950000000     0.596100000000     0.046891   
H694     H      0.599270000000     0.224890000000     0.666040000000     0.0464435  
H695     H      0.593030000000     0.261080000000     0.639060000000     0.046013   
H696     H      0.633470000000     0.241140000000     0.594540000000     0.0474047  
H697     H      0.609610000000     0.180150000000     0.674660000000     0.0452103  
H698     H      0.623950000000     0.159740000000     0.624720000000     0.0465602  
H699     H      0.606500000000     0.240980000000     0.587490000000     0.0470102  
H700     H      0.620100000000     0.260990000000     0.645760000000     0.0469221  
H701     H      0.789900000000     0.142280000000     0.914640000000     0.0472758  
H702     H      0.811250000000     0.090850000000     0.899300000000     0.0478364  
H703     H      0.775430000000     0.071330000000     0.878760000000     0.0468941  
H704     H      0.747380000000     0.141120000000     0.898600000000     0.0464941  
H705     H      0.711410000000     0.113980000000     0.904930000000     0.0460195  
H706     H      0.731070000000     0.069730000000     0.863980000000     0.0474159  
H707     H      0.791900000000     0.149910000000     0.887910000000     0.0451735  
H708     H      0.812380000000     0.100080000000     0.873050000000     0.0465852  
H709     H      0.731580000000     0.062560000000     0.890900000000     0.0469509  
H710     H      0.711120000000     0.120880000000     0.877940000000     0.0470055  
H711     H      0.580140000000     0.931880000000     0.845610000000     0.0472054  
H712     H      0.631690000000     0.910750000000     0.860260000000     0.0477805  
H713     H      0.651290000000     0.946850000000     0.880400000000     0.0467954  
H714     H      0.581360000000     0.974590000000     0.861480000000     0.0462743  
H715     H      0.608450000000     0.010530000000     0.854650000000     0.0459447  
H716     H      0.652930000000     0.991350000000     0.895030000000     0.0473495  
H717     H      0.572700000000     0.930180000000     0.872450000000     0.0451136  
H718     H      0.622610000000     0.909930000000     0.886650000000     0.0465077  
H719     H      0.659920000000     0.990600000000     0.868000000000     0.0467845  
H720     H      0.601640000000     0.011100000000     0.881720000000     0.0470535  
H721     H      0.625630000000     0.081040000000     0.724830000000     0.0460844  
H722     H      0.574210000000     0.095350000000     0.744740000000     0.0469757  
H723     H      0.582970000000     0.107260000000     0.788690000000     0.0468985  
H724     H      0.652730000000     0.087080000000     0.761010000000     0.0464954  
H725     H      0.653770000000     0.070870000000     0.803430000000     0.0474065  
H726     H      0.611680000000     0.112630000000     0.825890000000     0.0466217  
H727     H      0.632580000000     0.108000000000     0.724730000000     0.0470031  
H728     H      0.581490000000     0.122220000000     0.744400000000     0.0473884  
H729     H      0.602360000000     0.086440000000     0.824510000000     0.0479084  
H730     H      0.661480000000     0.097530000000     0.805670000000     0.0452612  
H731     H      0.635830000000     0.119820000000     0.935570000000     0.0479022  
H732     H      0.651840000000     0.068490000000     0.956020000000     0.0473912  
H733     H      0.636180000000     0.069610000000     0.998770000000     0.046489   
H734     H      0.615360000000     0.139210000000     0.971910000000     0.0469094  
H735     H      0.627750000000     0.148130000000     0.015700000000     0.0469359  
H736     H      0.615650000000     0.089720000000     0.035580000000     0.0469637  
H737     H      0.609660000000     0.110370000000     0.934660000000     0.0465194  
H738     H      0.625170000000     0.060700000000     0.954260000000     0.0452448  
H739     H      0.642550000000     0.096890000000     0.035000000000     0.0458871  
H740     H      0.600920000000     0.140750000000     0.016470000000     0.0475118  
H741     H      0.855250000000     0.648130000000     0.015640000000     0.046963   
H742     H      0.842550000000     0.596470000000     0.034880000000     0.0458862  
H743     H      0.849390000000     0.569590000000     0.998370000000     0.0463957  
H744     H      0.867400000000     0.639710000000     0.971610000000     0.0468825  
H745     H      0.847160000000     0.620200000000     0.935520000000     0.0478801  
H746     H      0.860070000000     0.561160000000     0.953610000000     0.0450985  
H747     H      0.882340000000     0.641240000000     0.015930000000     0.0474239  
H748     H      0.869720000000     0.589870000000     0.034960000000     0.0469221  
H749     H      0.833170000000     0.568490000000     0.955920000000     0.0473311  
H750     H      0.873620000000     0.611210000000     0.934060000000     0.0464698  
H751     H      0.860090000000     0.801300000000     0.124470000000     0.046487   
H752     H      0.874130000000     0.781550000000     0.174420000000     0.0451168  
H753     H      0.884540000000     0.736680000000     0.165870000000     0.0464167  
H754     H      0.865850000000     0.763710000000     0.095900000000     0.0468334  
H755     H      0.850750000000     0.719500000000     0.094400000000     0.047399   
H756     H      0.890960000000     0.700150000000     0.138940000000     0.045959   
H757     H      0.886450000000     0.799580000000     0.115330000000     0.0478035  
H758     H      0.900940000000     0.778970000000     0.166920000000     0.0472644  
H759     H      0.863860000000     0.700300000000     0.145630000000     0.0469299  
H760     H      0.877760000000     0.719600000000     0.087350000000     0.0469891  
H761     H      0.811580000000     0.590610000000     0.109940000000     0.047836   
H762     H      0.790420000000     0.642250000000     0.095740000000     0.0472891  
H763     H      0.747830000000     0.641040000000     0.111810000000     0.0464837  
H764     H      0.775610000000     0.570980000000     0.130090000000     0.0468673  
H765     H      0.731770000000     0.562470000000     0.117830000000     0.0469105  
H766     H      0.711440000000     0.620710000000     0.132080000000     0.0469636  
H767     H      0.812620000000     0.599580000000     0.136380000000     0.0465633  
H768     H      0.792340000000     0.649590000000     0.122630000000     0.0451733  
H769     H      0.711800000000     0.614050000000     0.104950000000     0.0459203  
H770     H      0.731200000000     0.569340000000     0.144900000000     0.0474148  
H771     H      0.352500000000     0.241500000000     0.094190000000     0.0474559  
H772     H      0.365950000000     0.261080000000     0.145460000000     0.0470605  
H773     H      0.386070000000     0.224400000000     0.165740000000     0.0464811  
H774     H      0.366970000000     0.196920000000     0.095870000000     0.0468626  
H775     H      0.360590000000     0.160000000000     0.124590000000     0.0465088  
H776     H      0.401760000000     0.181570000000     0.167000000000     0.047328   
H777     H      0.379520000000     0.240610000000     0.087180000000     0.0468366  
H778     H      0.393010000000     0.260350000000     0.138590000000     0.0459073  
H779     H      0.374910000000     0.180060000000     0.174450000000     0.0451878  
H780     H      0.386980000000     0.160640000000     0.115470000000     0.0478172  
H781     H      0.342250000000     0.364000000000     0.035620000000     0.0459579  
H782     H      0.356620000000     0.312630000000     0.015570000000     0.0469618  
H783     H      0.368610000000     0.321450000000     0.971690000000     0.0469485  
H784     H      0.348340000000     0.391160000000     0.999570000000     0.0464233  
H785     H      0.332210000000     0.392250000000     0.957060000000     0.0473081  
H786     H      0.374050000000     0.350210000000     0.934650000000     0.0466266  
H787     H      0.369200000000     0.371000000000     0.035850000000     0.0469176  
H788     H      0.383480000000     0.319910000000     0.016030000000     0.0474255  
H789     H      0.347850000000     0.340890000000     0.935840000000     0.0478805  
H790     H      0.358880000000     0.399980000000     0.955010000000     0.0452223  
H791     H      0.522510000000     0.358490000000     0.114520000000     0.0469076  
H792     H      0.502800000000     0.372310000000     0.165650000000     0.0473733  
H793     H      0.458590000000     0.357210000000     0.164160000000     0.0468608  
H794     H      0.486340000000     0.337550000000     0.094320000000     0.0464523  
H795     H      0.441600000000     0.347880000000     0.085640000000     0.045162   
H796     H      0.422890000000     0.336370000000     0.144730000000     0.0478468  
H797     H      0.522580000000     0.331480000000     0.121350000000     0.0460084  
H798     H      0.502610000000     0.345390000000     0.172840000000     0.0469796  
H799     H      0.421320000000     0.362620000000     0.135500000000     0.046543   
H800     H      0.444030000000     0.321170000000     0.093280000000     0.0473039  
H801     H      0.022340000000     0.331820000000     0.388960000000     0.0460638  
H802     H      0.002750000000     0.344530000000     0.337270000000     0.0470592  
H803     H      0.958640000000     0.356410000000     0.345720000000     0.0466689  
H804     H      0.985860000000     0.338390000000     0.415820000000     0.0462998  
H805     H      0.943610000000     0.321900000000     0.416930000000     0.0472598  
H806     H      0.921110000000     0.362340000000     0.374240000000     0.0464868  
H807     H      0.022150000000     0.358990000000     0.395490000000     0.0470002  
H808     H      0.002820000000     0.371600000000     0.344170000000     0.0474515  
H809     H      0.922850000000     0.335910000000     0.365260000000     0.047812   
H810     H      0.941000000000     0.348760000000     0.424280000000     0.045085   
H811     H      0.080240000000     0.432020000000     0.345230000000     0.0473525  
H812     H      0.131780000000     0.410880000000     0.359940000000     0.0477596  
H813     H      0.151390000000     0.447000000000     0.380010000000     0.0468879  
H814     H      0.081490000000     0.474760000000     0.361010000000     0.046546   
H815     H      0.108620000000     0.510670000000     0.354120000000     0.0459296  
H816     H      0.153070000000     0.491520000000     0.394550000000     0.0474914  
H817     H      0.072790000000     0.430390000000     0.372080000000     0.0452419  
H818     H      0.122680000000     0.410120000000     0.386330000000     0.0464914  
H819     H      0.160060000000     0.490720000000     0.367530000000     0.0468919  
H820     H      0.101790000000     0.511290000000     0.381180000000     0.047063   
H821     H      0.104620000000     0.220410000000     0.422890000000     0.0469174  
H822     H      0.091110000000     0.200660000000     0.371490000000     0.0459385  
H823     H      0.098020000000     0.236620000000     0.344340000000     0.0465004  
H824     H      0.117150000000     0.264100000000     0.414210000000     0.0468718  
H825     H      0.097120000000     0.300370000000     0.394610000000     0.0478622  
H826     H      0.109160000000     0.280960000000     0.335630000000     0.0452543  
H827     H      0.131630000000     0.219520000000     0.415870000000     0.0474806  
H828     H      0.118160000000     0.199940000000     0.364610000000     0.0470285  
H829     H      0.082310000000     0.279440000000     0.343090000000     0.0473975  
H830     H      0.123500000000     0.301020000000     0.385490000000     0.0465212  
H831     H      0.102570000000     0.586620000000     0.324030000000     0.0479168  
H832     H      0.153960000000     0.571000000000     0.302950000000     0.0473092  
H833     H      0.152900000000     0.587150000000     0.260520000000     0.0465266  
H834     H      0.083170000000     0.607390000000     0.288200000000     0.0469049  
H835     H      0.074380000000     0.595420000000     0.244270000000     0.04697    
H836     H      0.132750000000     0.608020000000     0.224210000000     0.0469676  
H837     H      0.111900000000     0.612810000000     0.325390000000     0.0466126  
H838     H      0.161690000000     0.597670000000     0.305170000000     0.0451933  
H839     H      0.125780000000     0.581070000000     0.224350000000     0.0460159  
H840     H      0.081660000000     0.622290000000     0.243900000000     0.047409   
H841     H      0.922280000000     0.625360000000     0.144580000000     0.0478174  
H842     H      0.942980000000     0.639920000000     0.092990000000     0.047238   
H843     H      0.985810000000     0.624280000000     0.094220000000     0.0462725  
H844     H      0.958640000000     0.605470000000     0.164160000000     0.0467155  
H845     H      0.002350000000     0.618110000000     0.172770000000     0.0469085  
H846     H      0.022600000000     0.604300000000     0.114490000000     0.0470397  
H847     H      0.921600000000     0.598940000000     0.135500000000     0.0464815  
H848     H      0.941430000000     0.613030000000     0.085590000000     0.0450723  
H849     H      0.021870000000     0.631390000000     0.121320000000     0.0459088  
H850     H      0.003250000000     0.591060000000     0.165810000000     0.0475163  
H851     H      0.114930000000     0.870730000000     0.035320000000     0.0469971  
H852     H      0.102330000000     0.819310000000     0.015770000000     0.0475205  
H853     H      0.117010000000     0.820970000000     0.971320000000     0.0469455  
H854     H      0.134970000000     0.891100000000     0.998790000000     0.0464344  
H855     H      0.123980000000     0.899580000000     0.954280000000     0.0451522  
H856     H      0.136960000000     0.840610000000     0.935230000000     0.0478482  
H857     H      0.142100000000     0.864150000000     0.034880000000     0.0458819  
H858     H      0.129440000000     0.812520000000     0.015130000000     0.0469442  
H859     H      0.110460000000     0.849530000000     0.934230000000     0.0465565  
H860     H      0.150920000000     0.892330000000     0.956160000000     0.0473181  
H861     H      0.083000000000     0.682630000000     0.166660000000     0.0473686  
H862     H      0.097800000000     0.661370000000     0.115130000000     0.0478735  
H863     H      0.118540000000     0.696990000000     0.095650000000     0.0468797  
H864     H      0.099430000000     0.724910000000     0.165580000000     0.0465341  
H865     H      0.093210000000     0.761110000000     0.138620000000     0.0461032  
H866     H      0.133680000000     0.741180000000     0.094120000000     0.047373   
H867     H      0.109750000000     0.680170000000     0.174190000000     0.0452184  
H868     H      0.124110000000     0.659770000000     0.124260000000     0.046597   
H869     H      0.106720000000     0.741020000000     0.087050000000     0.0470185  
H870     H      0.120280000000     0.761010000000     0.145330000000     0.046975   
H871     H      0.272590000000     0.846920000000     0.105330000000     0.0459417  
H872     H      0.252410000000     0.898360000000     0.119320000000     0.0468885  
H873     H      0.208510000000     0.889640000000     0.131230000000     0.046815   
H874     H      0.236560000000     0.819830000000     0.111470000000     0.0464725  
H875     H      0.194090000000     0.818740000000     0.095220000000     0.0472743  
H876     H      0.171500000000     0.860940000000     0.136750000000     0.0465284  
H877     H      0.272750000000     0.840020000000     0.132320000000     0.0469287  
H878     H      0.252800000000     0.891170000000     0.146230000000     0.0473295  
H879     H      0.172740000000     0.870170000000     0.110510000000     0.0477356  
H880     H      0.191990000000     0.811090000000     0.121930000000     0.0452097  
H881     H      0.962480000000     0.829280000000     0.121500000000     0.0457073  
H882     H      0.981820000000     0.843880000000     0.172700000000     0.0467199  
H883     H      0.025500000000     0.856450000000     0.163800000000     0.0468185  
H884     H      0.998570000000     0.835890000000     0.094180000000     0.0456604  
H885     H      0.041470000000     0.820380000000     0.092990000000     0.0473889  
H886     H      0.062580000000     0.862420000000     0.134950000000     0.0465573  
H887     H      0.961660000000     0.856200000000     0.114330000000     0.0468365  
H888     H      0.980840000000     0.870750000000     0.165400000000     0.0473318  
H889     H      0.061980000000     0.836210000000     0.144330000000     0.0479537  
H890     H      0.042930000000     0.847100000000     0.085280000000     0.0452115  
H891     H      0.291430000000     0.318430000000     0.095340000000     0.047323   
H892     H      0.311690000000     0.369820000000     0.111110000000     0.047881   
H893     H      0.275260000000     0.389210000000     0.131450000000     0.046862   
H894     H      0.248680000000     0.319540000000     0.110970000000     0.0464836  
H895     H      0.212350000000     0.346780000000     0.104440000000     0.0459343  
H896     H      0.230680000000     0.390740000000     0.145850000000     0.0475251  
H897     H      0.293220000000     0.310710000000     0.122050000000     0.0451542  
H898     H      0.312630000000     0.360420000000     0.137310000000     0.0464773  
H899     H      0.231450000000     0.398060000000     0.118990000000     0.0469301  
H900     H      0.211760000000     0.339670000000     0.131370000000     0.0470335  
H901     H      0.159720000000     0.469910000000     0.141220000000     0.0469201  
H902     H      0.108420000000     0.450890000000     0.155540000000     0.0459177  
H903     H      0.081210000000     0.487230000000     0.148910000000     0.0464943  
H904     H      0.150930000000     0.513700000000     0.128740000000     0.0468904  
H905     H      0.131530000000     0.550210000000     0.149000000000     0.0479387  
H906     H      0.072430000000     0.531740000000     0.137800000000     0.0452121  
H907     H      0.152450000000     0.469090000000     0.114320000000     0.0475267  
H908     H      0.101330000000     0.450250000000     0.128590000000     0.0470425  
H909     H      0.080100000000     0.530030000000     0.164540000000     0.0473858  
H910     H      0.122170000000     0.551070000000     0.122760000000     0.0465323  
H911     H      0.081140000000     0.339940000000     0.265780000000     0.0474504  
H912     H      0.132520000000     0.352370000000     0.285020000000     0.0470234  
H913     H      0.152870000000     0.372740000000     0.248610000000     0.046497   
H914     H      0.082720000000     0.354980000000     0.221530000000     0.0469325  
H915     H      0.111220000000     0.348790000000     0.184030000000     0.0465297  
H916     H      0.154010000000     0.389080000000     0.206260000000     0.0473838  
H917     H      0.074310000000     0.367050000000     0.265580000000     0.0470073  
H918     H      0.126020000000     0.379560000000     0.285060000000     0.0460293  
H919     H      0.161290000000     0.362180000000     0.203810000000     0.0451864  
H920     H      0.102280000000     0.375260000000     0.185610000000     0.0478655  
H921     H      0.093010000000     0.260740000000     0.870730000000     0.0460534  
H922     H      0.106150000000     0.241290000000     0.922340000000     0.0470448  
H923     H      0.118050000000     0.197180000000     0.913820000000     0.0468708  
H924     H      0.099440000000     0.224200000000     0.843820000000     0.0465499  
H925     H      0.083030000000     0.181910000000     0.842760000000     0.047384   
H926     H      0.123830000000     0.159590000000     0.885260000000     0.0465038  
H927     H      0.120130000000     0.260580000000     0.864070000000     0.0469703  
H928     H      0.133170000000     0.241390000000     0.915320000000     0.0474289  
H929     H      0.097460000000     0.161310000000     0.894370000000     0.0478614  
H930     H      0.109840000000     0.179330000000     0.835290000000     0.0451811  
H931     H      0.136760000000     0.340760000000     0.074150000000     0.0478272  
H932     H      0.150770000000     0.392450000000     0.053720000000     0.0473212  
H933     H      0.134540000000     0.391340000000     0.011280000000     0.0464559  
H934     H      0.116510000000     0.321240000000     0.038080000000     0.0468246  
H935     H      0.128650000000     0.312790000000     0.994050000000     0.0469911  
H936     H      0.114200000000     0.371050000000     0.974710000000     0.047027   
H937     H      0.110300000000     0.349770000000     0.075620000000     0.0464852  
H938     H      0.123870000000     0.399800000000     0.056040000000     0.0451547  
H939     H      0.141370000000     0.364440000000     0.974780000000     0.0459594  
H940     H      0.101560000000     0.319700000000     0.993760000000     0.047486   
H941     H      0.062380000000     0.361960000000     0.874150000000     0.0465231  
H942     H      0.042540000000     0.347900000000     0.924060000000     0.0452153  
H943     H      0.998150000000     0.336700000000     0.915440000000     0.045656   
H944     H      0.025330000000     0.355450000000     0.845490000000     0.0469102  
H945     H      0.980740000000     0.369910000000     0.843840000000     0.0473687  
H946     H      0.962080000000     0.329620000000     0.888350000000     0.0457227  
H947     H      0.061670000000     0.335530000000     0.865080000000     0.0478534  
H948     H      0.040960000000     0.321010000000     0.916670000000     0.0473634  
H949     H      0.961380000000     0.356710000000     0.895160000000     0.0469009  
H950     H      0.981610000000     0.342860000000     0.836890000000     0.0467355  
H951     H      0.252180000000     0.398470000000     0.892360000000     0.0469171  
H952     H      0.272120000000     0.346900000000     0.905290000000     0.0459517  
H953     H      0.236140000000     0.319880000000     0.898230000000     0.0464917  
H954     H      0.208400000000     0.389940000000     0.879890000000     0.0468655  
H955     H      0.172350000000     0.370280000000     0.899860000000     0.0478301  
H956     H      0.191690000000     0.311320000000     0.887190000000     0.0451776  
H957     H      0.252870000000     0.391630000000     0.865280000000     0.0474481  
H958     H      0.272620000000     0.340260000000     0.878150000000     0.0470499  
H959     H      0.193490000000     0.318610000000     0.914100000000     0.0473143  
H960     H      0.171440000000     0.361310000000     0.873410000000     0.0465402  
In1      In     0.117210000000     0.319240000000     0.916030000000     2.41235    
In2      In     0.153210000000     0.391650000000     0.129990000000     2.41161    
In3      In     0.117730000000     0.819070000000     0.093370000000     2.41319    
In4      In     0.080700000000     0.606280000000     0.166160000000     2.4126     
In5      In     0.080700000000     0.355720000000     0.343580000000     2.41241    
In6      In     0.367680000000     0.318990000000     0.093740000000     2.41242    
In7      In     0.866730000000     0.641650000000     0.093660000000     2.41213    
In8      In     0.653360000000     0.068920000000     0.879760000000     2.41277    
In9      In     0.580560000000     0.106250000000     0.666640000000     2.41248    
In10     In     0.366630000000     0.141740000000     0.594070000000     2.41208    
In11     In     0.080530000000     0.856250000000     0.666110000000     2.41199    
In12     In     0.653110000000     0.891650000000     0.630260000000     2.41108    
In13     In     0.580640000000     0.855570000000     0.843840000000     2.41204    
In14     In     0.903450000000     0.855280000000     0.166220000000     2.4119     
In15     In     0.580680000000     0.605650000000     0.343720000000     2.41205    
In16     In     0.653060000000     0.391620000000     0.380380000000     2.41208    
In17     In     0.653530000000     0.569000000000     0.129620000000     2.41314    
In18     In     0.580650000000     0.356280000000     0.166550000000     2.41271    
In19     In     0.830550000000     0.891960000000     0.380300000000     2.41345    
In20     In     0.403390000000     0.854690000000     0.343710000000     2.41168    
In21     In     0.617350000000     0.819300000000     0.416250000000     2.41172    
In22     In     0.403280000000     0.355390000000     0.666590000000     2.41181    
In23     In     0.617550000000     0.319020000000     0.593780000000     2.41306    
In24     In     0.116640000000     0.641720000000     0.593470000000     2.41139    
In25     In     0.153530000000     0.569070000000     0.379280000000     2.413      
In26     In     0.366400000000     0.641900000000     0.416520000000     2.41278    
In27     In     0.330820000000     0.569400000000     0.629960000000     2.41192    
In28     In     0.153040000000     0.891590000000     0.879910000000     2.41156    
In29     In     0.330470000000     0.391960000000     0.880720000000     2.41309    
In30     In     0.367190000000     0.819230000000     0.916380000000     2.41107    
In31     In     0.403280000000     0.604690000000     0.843770000000     2.41263    
In32     In     0.866250000000     0.141960000000     0.916350000000     2.41289    
In33     In     0.616280000000     0.641860000000     0.916560000000     2.41307    
In34     In     0.867520000000     0.819060000000     0.593380000000     2.41237    
In35     In     0.903220000000     0.605350000000     0.666080000000     2.41289    
In36     In     0.830710000000     0.569350000000     0.879660000000     2.41121    
In37     In     0.903270000000     0.354730000000     0.843500000000     2.41269    
In38     In     0.867310000000     0.319230000000     0.416210000000     2.41127    
In39     In     0.830450000000     0.391990000000     0.630380000000     2.41272    
In40     In     0.330580000000     0.891950000000     0.130590000000     2.41326    
In41     In     0.903450000000     0.104700000000     0.343590000000     2.41264    
In42     In     0.080500000000     0.105610000000     0.843480000000     2.41266    
In43     In     0.116430000000     0.142030000000     0.416330000000     2.41254    
In44     In     0.153370000000     0.069000000000     0.629380000000     2.41309    
In45     In     0.831010000000     0.069320000000     0.129770000000     2.41196    
In46     In     0.616780000000     0.141740000000     0.093950000000     2.41161    
In47     In     0.330880000000     0.069300000000     0.380100000000     2.41116    
In48     In     0.403360000000     0.105290000000     0.166510000000     2.41236    
N1       N      0.383810000000     0.101760000000     0.225750000000    -0.165235   
N2       N      0.349000000000     0.089830000000     0.324010000000    -0.166039   
N3       N      0.462580000000     0.108760000000     0.146880000000    -0.165302   
N4       N      0.560780000000     0.121110000000     0.112070000000    -0.166182   
N5       N      0.673110000000     0.123750000000     0.114410000000    -0.166135   
N6       N      0.771650000000     0.088870000000     0.126030000000    -0.165368   
N7       N      0.132960000000     0.087230000000     0.573280000000    -0.166044   
N8       N      0.120590000000     0.122400000000     0.475370000000    -0.165441   
N9       N      0.172960000000     0.124050000000     0.395910000000    -0.166126   
N10      N      0.271530000000     0.088890000000     0.384380000000    -0.165305   
N11      N      0.100030000000     0.101030000000     0.784240000000    -0.165499   
N12      N      0.135270000000     0.089320000000     0.685870000000    -0.166174   
N13      N      0.849140000000     0.089490000000     0.186110000000    -0.166167   
N14      N      0.884110000000     0.100530000000     0.284380000000    -0.16536    
N15      N      0.962530000000     0.108500000000     0.363270000000    -0.165472   
N16      N      0.060480000000     0.121380000000     0.398200000000    -0.166123   
N17      N      0.349970000000     0.951030000000     0.134990000000    -0.165402   
N18      N      0.385120000000     0.049040000000     0.146370000000    -0.166102   
N19      N      0.871910000000     0.259890000000     0.396770000000    -0.165451   
N20      N      0.883160000000     0.161320000000     0.361620000000    -0.166172   
N21      N      0.850930000000     0.373960000000     0.573920000000    -0.166135   
N22      N      0.862920000000     0.338830000000     0.475490000000    -0.165336   
N23      N      0.883600000000     0.358720000000     0.784410000000    -0.165277   
N24      N      0.848580000000     0.371400000000     0.686440000000    -0.166061   
N25      N      0.850210000000     0.509970000000     0.875230000000    -0.165307   
N26      N      0.885300000000     0.411330000000     0.863850000000    -0.166142   
N27      N      0.883660000000     0.601820000000     0.725320000000    -0.165314   
N28      N      0.848820000000     0.589890000000     0.823580000000    -0.16613    
N29      N      0.885000000000     0.549090000000     0.645960000000    -0.166169   
N30      N      0.849850000000     0.451070000000     0.634710000000    -0.165368   
N31      N      0.872030000000     0.759910000000     0.612740000000    -0.165366   
N32      N      0.883120000000     0.661740000000     0.647900000000    -0.1662     
N33      N      0.672780000000     0.623900000000     0.896040000000    -0.166189   
N34      N      0.771360000000     0.588910000000     0.884030000000    -0.16541    
N35      N      0.862320000000     0.122560000000     0.975480000000    -0.165324   
N36      N      0.851210000000     0.087520000000     0.073580000000    -0.166194   
N37      N      0.882660000000     0.298840000000     0.861720000000    -0.166255   
N38      N      0.869930000000     0.201000000000     0.896680000000    -0.165362   
N39      N      0.922810000000     0.121720000000     0.898230000000    -0.166049   
N40      N      0.021230000000     0.110290000000     0.862970000000    -0.165427   
N41      N      0.462360000000     0.608470000000     0.863460000000    -0.165395   
N42      N      0.560310000000     0.621210000000     0.898440000000    -0.16619    
N43      N      0.362800000000     0.838810000000     0.975670000000    -0.165305   
N44      N      0.351040000000     0.873960000000     0.074120000000    -0.166185   
N45      N      0.371770000000     0.759880000000     0.896930000000    -0.16529    
N46      N      0.383010000000     0.661310000000     0.861780000000    -0.166223   
N47      N      0.350070000000     0.450970000000     0.876850000000    -0.165302   
N48      N      0.385050000000     0.548760000000     0.864270000000    -0.166019   
N49      N      0.098520000000     0.049380000000     0.864080000000    -0.166174   
N50      N      0.133400000000     0.950920000000     0.876200000000    -0.165282   
N51      N      0.212390000000     0.872040000000     0.883740000000    -0.165353   
N52      N      0.310910000000     0.837240000000     0.895820000000    -0.166313   
N53      N      0.383930000000     0.600530000000     0.784570000000    -0.16538    
N54      N      0.348920000000     0.589590000000     0.686300000000    -0.166124   
N55      N      0.351070000000     0.587560000000     0.573770000000    -0.166324   
N56      N      0.362380000000     0.622520000000     0.475660000000    -0.165431   
N57      N      0.310370000000     0.623670000000     0.396080000000    -0.166035   
N58      N      0.212540000000     0.588640000000     0.383470000000    -0.165384   
N59      N      0.121060000000     0.622150000000     0.534180000000    -0.165248   
N60      N      0.133030000000     0.587060000000     0.435730000000    -0.166113   
N61      N      0.962440000000     0.608820000000     0.646440000000    -0.16545    
N62      N      0.060630000000     0.621090000000     0.611590000000    -0.166116   
N63      N      0.172940000000     0.623720000000     0.614020000000    -0.166171   
N64      N      0.271460000000     0.588940000000     0.626100000000    -0.165314   
N65      N      0.771440000000     0.372400000000     0.626280000000    -0.165318   
N66      N      0.673600000000     0.337260000000     0.614130000000    -0.165968   
N67      N      0.383760000000     0.359980000000     0.725840000000    -0.165334   
N68      N      0.348550000000     0.371630000000     0.824220000000    -0.16617    
N69      N      0.462550000000     0.350690000000     0.647110000000    -0.16547    
N70      N      0.560980000000     0.339280000000     0.611870000000    -0.166141   
N71      N      0.350450000000     0.510070000000     0.633700000000    -0.1654     
N72      N      0.385280000000     0.411610000000     0.645950000000    -0.166043   
N73      N      0.348690000000     0.871350000000     0.186650000000    -0.166153   
N74      N      0.383720000000     0.858700000000     0.284630000000    -0.165413   
N75      N      0.462610000000     0.850290000000     0.363040000000    -0.165343   
N76      N      0.560910000000     0.839420000000     0.398130000000    -0.166191   
N77      N      0.370120000000     0.700940000000     0.396870000000    -0.165211   
N78      N      0.382810000000     0.798790000000     0.361910000000    -0.166048   
N79      N      0.385420000000     0.911270000000     0.364110000000    -0.166174   
N80      N      0.350370000000     0.009910000000     0.375670000000    -0.165121   
N81      N      0.850150000000     0.950970000000     0.376430000000    -0.165315   
N82      N      0.885200000000     0.048770000000     0.364050000000    -0.165998   
N83      N      0.771470000000     0.872550000000     0.384410000000    -0.165396   
N84      N      0.673490000000     0.837530000000     0.396000000000    -0.166312   
N85      N      0.863320000000     0.838670000000     0.534330000000    -0.16528    
N86      N      0.850980000000     0.873780000000     0.436400000000    -0.16613    
N87      N      0.600930000000     0.299660000000     0.148530000000    -0.16613    
N88      N      0.612190000000     0.201090000000     0.113390000000    -0.165225   
N89      N      0.598910000000     0.412210000000     0.146090000000    -0.166171   
N90      N      0.633930000000     0.510000000000     0.133520000000    -0.165413   
N91      N      0.633060000000     0.587170000000     0.073520000000    -0.166109   
N92      N      0.620500000000     0.622250000000     0.975600000000    -0.16549    
N93      N      0.810980000000     0.337220000000     0.395760000000    -0.166279   
N94      N      0.712420000000     0.372080000000     0.384150000000    -0.165356   
N95      N      0.621530000000     0.338420000000     0.534650000000    -0.165352   
N96      N      0.632810000000     0.373430000000     0.436560000000    -0.166149   
N97      N      0.599980000000     0.360440000000     0.225770000000    -0.165365   
N98      N      0.634950000000     0.371430000000     0.324040000000    -0.166334   
N99      N      0.521410000000     0.610330000000     0.363190000000    -0.165484   
N100     N      0.422970000000     0.621640000000     0.398450000000    -0.166168   
N101     N      0.635470000000     0.589350000000     0.186110000000    -0.166147   
N102     N      0.600230000000     0.601060000000     0.284480000000    -0.165432   
N103     N      0.598660000000     0.549430000000     0.364360000000    -0.166232   
N104     N      0.633450000000     0.450960000000     0.376670000000    -0.165389   
N105     N      0.601350000000     0.661740000000     0.361760000000    -0.16621    
N106     N      0.613800000000     0.760040000000     0.396580000000    -0.165246   
N107     N      0.848640000000     0.871620000000     0.323810000000    -0.166173   
N108     N      0.883890000000     0.859870000000     0.225460000000    -0.165386   
N109     N      0.850640000000     0.009980000000     0.133440000000    -0.165165   
N110     N      0.885470000000     0.911510000000     0.145590000000    -0.166216   
N111     N      0.521420000000     0.852110000000     0.863460000000    -0.165324   
N112     N      0.423220000000     0.839840000000     0.898280000000    -0.166178   
N113     N      0.600730000000     0.799180000000     0.862020000000    -0.166226   
N114     N      0.611760000000     0.701010000000     0.897200000000    -0.165403   
N115     N      0.712460000000     0.872080000000     0.625890000000    -0.165386   
N116     N      0.811030000000     0.837030000000     0.613900000000    -0.166306   
N117     N      0.632650000000     0.873630000000     0.574010000000    -0.166241   
N118     N      0.621060000000     0.838800000000     0.475560000000    -0.165218   
N119     N      0.635020000000     0.871110000000     0.686340000000    -0.166178   
N120     N      0.600200000000     0.859130000000     0.784600000000    -0.165292   
N121     N      0.923490000000     0.839710000000     0.611500000000    -0.166075   
N122     N      0.021450000000     0.852480000000     0.646440000000    -0.165422   
N123     N      0.134910000000     0.871400000000     0.823570000000    -0.166122   
N124     N      0.099900000000     0.860410000000     0.725320000000    -0.165175   
N125     N      0.100790000000     0.799630000000     0.648080000000    -0.166084   
N126     N      0.112050000000     0.701060000000     0.612920000000    -0.165408   
N127     N      0.098760000000     0.912190000000     0.645650000000    -0.166135   
N128     N      0.133770000000     0.010000000000     0.633200000000    -0.16504    
N129     N      0.362950000000     0.122210000000     0.534760000000    -0.165246   
N130     N      0.351330000000     0.087350000000     0.436340000000    -0.166173   
N131     N      0.370160000000     0.201010000000     0.613730000000    -0.165268   
N132     N      0.382580000000     0.299310000000     0.648550000000    -0.166117   
N133     N      0.310450000000     0.123510000000     0.614220000000    -0.166129   
N134     N      0.212450000000     0.088420000000     0.625370000000    -0.165353   
N135     N      0.423050000000     0.121610000000     0.612220000000    -0.166079   
N136     N      0.521340000000     0.110660000000     0.647310000000    -0.16534    
N137     N      0.598550000000     0.049660000000     0.646270000000    -0.166118   
N138     N      0.633610000000     0.951030000000     0.634720000000    -0.165376   
N139     N      0.613840000000     0.259990000000     0.613450000000    -0.165397   
N140     N      0.601150000000     0.162140000000     0.648430000000    -0.166127   
N141     N      0.712360000000     0.088520000000     0.883860000000    -0.165389   
N142     N      0.810190000000     0.123700000000     0.896020000000    -0.16605    
N143     N      0.633970000000     0.009840000000     0.875410000000    -0.165081   
N144     N      0.598860000000     0.911820000000     0.864000000000    -0.166222   
N145     N      0.635220000000     0.089520000000     0.823710000000    -0.166022   
N146     N      0.600220000000     0.102240000000     0.725730000000    -0.165341   
N147     N      0.621150000000     0.122140000000     0.034670000000    -0.165394   
N148     N      0.632910000000     0.086950000000     0.936230000000    -0.166054   
N149     N      0.851200000000     0.587380000000     0.935900000000    -0.166224   
N150     N      0.862980000000     0.622160000000     0.034340000000    -0.165321   
N151     N      0.870300000000     0.700910000000     0.113330000000    -0.165258   
N152     N      0.882770000000     0.799200000000     0.148170000000    -0.166145   
N153     N      0.712610000000     0.588410000000     0.125480000000    -0.165304   
N154     N      0.810590000000     0.623420000000     0.113910000000    -0.166054   
N155     N      0.383270000000     0.161680000000     0.148300000000    -0.166188   
N156     N      0.372190000000     0.259840000000     0.113110000000    -0.165409   
N157     N      0.350930000000     0.373750000000     0.936800000000    -0.166073   
N158     N      0.363490000000     0.338620000000     0.034700000000    -0.165322   
N159     N      0.423640000000     0.339640000000     0.111890000000    -0.165973   
N160     N      0.521570000000     0.352490000000     0.146850000000    -0.165361   
N161     N      0.923310000000     0.339870000000     0.398070000000    -0.166114   
N162     N      0.021490000000     0.352250000000     0.363220000000    -0.165391   
N163     N      0.134130000000     0.510000000000     0.374900000000    -0.16542    
N164     N      0.098950000000     0.411990000000     0.363670000000    -0.166099   
N165     N      0.100810000000     0.299340000000     0.361780000000    -0.16612    
N166     N      0.111930000000     0.201180000000     0.396960000000    -0.165376   
N167     N      0.100380000000     0.602280000000     0.225240000000    -0.165363   
N168     N      0.135430000000     0.589680000000     0.323220000000    -0.166073   
N169     N      0.021480000000     0.610690000000     0.146830000000    -0.16541    
N170     N      0.923170000000     0.621520000000     0.111750000000    -0.166311   
N171     N      0.132820000000     0.873420000000     0.936110000000    -0.166154   
N172     N      0.121700000000     0.838450000000     0.034230000000    -0.165262   
N173     N      0.114040000000     0.760020000000     0.113020000000    -0.165325   
N174     N      0.101300000000     0.662170000000     0.147960000000    -0.16611    
N175     N      0.173750000000     0.837320000000     0.113780000000    -0.166244   
N176     N      0.271570000000     0.872370000000     0.126400000000    -0.165384   
N177     N      0.061150000000     0.839290000000     0.111470000000    -0.166124   
N178     N      0.962720000000     0.850600000000     0.146740000000    -0.165593   
N179     N      0.212570000000     0.372070000000     0.125710000000    -0.165272   
N180     N      0.311150000000     0.336950000000     0.114170000000    -0.166139   
N181     N      0.098660000000     0.549680000000     0.145790000000    -0.166063   
N182     N      0.133720000000     0.451040000000     0.134370000000    -0.165324   
N183     N      0.135090000000     0.371150000000     0.186070000000    -0.166214   
N184     N      0.100260000000     0.359230000000     0.284340000000    -0.165204   
N185     N      0.101180000000     0.161690000000     0.861540000000    -0.166204   
N186     N      0.113650000000     0.259980000000     0.896370000000    -0.165256   
N187     N      0.120930000000     0.338760000000     0.975340000000    -0.165341   
N188     N      0.132730000000     0.373580000000     0.073760000000    -0.166177   
N189     N      0.962490000000     0.350310000000     0.862830000000    -0.16543    
N190     N      0.060790000000     0.339390000000     0.897900000000    -0.166284   
N191     N      0.173380000000     0.337460000000     0.895870000000    -0.16623    
N192     N      0.271390000000     0.372560000000     0.884760000000    -0.1653     
O1       O      0.111960000000     0.294890000000     0.891340000000    -0.508254   
O2       O      0.118930000000     0.284360000000     0.921740000000    -0.485495   
O3       O      0.138490000000     0.342640000000     0.900420000000    -0.48933    
O4       O      0.095680000000     0.334920000000     0.892710000000    -0.489783   
O5       O      0.122440000000     0.343870000000     0.940450000000    -0.508178   
O6       O      0.082950000000     0.325030000000     0.921350000000    -0.512031   
O7       O      0.151470000000     0.313950000000     0.910180000000    -0.511749   
O8       O      0.115740000000     0.313430000000     0.950890000000    -0.485361   
O9       O      0.177690000000     0.367080000000     0.123890000000    -0.507906   
O10      O      0.188060000000     0.397340000000     0.131710000000    -0.485295   
O11      O      0.137550000000     0.368300000000     0.108490000000    -0.489279   
O12      O      0.129830000000     0.376020000000     0.151340000000    -0.489559   
O13      O      0.158960000000     0.426490000000     0.128400000000    -0.485438   
O14      O      0.158560000000     0.385550000000     0.164080000000    -0.511811   
O15      O      0.147160000000     0.397020000000     0.095890000000    -0.511543   
O16      O      0.128690000000     0.416160000000     0.136080000000    -0.508292   
O17      O      0.123080000000     0.843630000000     0.069170000000    -0.508624   
O18      O      0.116440000000     0.813160000000     0.058450000000    -0.485683   
O19      O      0.138870000000     0.842430000000     0.109340000000    -0.489648   
O20      O      0.096060000000     0.835120000000     0.116610000000    -0.489143   
O21      O      0.119500000000     0.784110000000     0.087650000000    -0.485642   
O22      O      0.083460000000     0.824550000000     0.088100000000    -0.511912   
O23      O      0.151990000000     0.813860000000     0.099020000000    -0.511834   
O24      O      0.112330000000     0.794990000000     0.118040000000    -0.508674   
O25      O      0.105340000000     0.600450000000     0.190290000000    -0.508555   
O26      O      0.075040000000     0.608140000000     0.201090000000    -0.485823   
O27      O      0.096630000000     0.627370000000     0.142780000000    -0.489072   
O28      O      0.103900000000     0.584510000000     0.150120000000    -0.48927    
O29      O      0.045800000000     0.605060000000     0.172060000000    -0.485615   
O30      O      0.075340000000     0.572090000000     0.160530000000    -0.511877   
O31      O      0.086560000000     0.640450000000     0.171420000000    -0.511554   
O32      O      0.056400000000     0.612070000000     0.141670000000    -0.508624   
O33      O      0.056410000000     0.350660000000     0.368280000000    -0.508501   
O34      O      0.045800000000     0.357360000000     0.337840000000    -0.485565   
O35      O      0.104070000000     0.377050000000     0.359280000000    -0.489431   
O36      O      0.096440000000     0.334270000000     0.366920000000    -0.489255   
O37      O      0.074900000000     0.354180000000     0.308690000000    -0.485236   
O38      O      0.086380000000     0.321420000000     0.338310000000    -0.511615   
O39      O      0.075450000000     0.390020000000     0.349270000000    -0.511799   
O40      O      0.105370000000     0.360770000000     0.319250000000    -0.508163   
O41      O      0.361750000000     0.343590000000     0.069660000000    -0.509087   
O42      O      0.369430000000     0.313290000000     0.058790000000    -0.485827   
O43      O      0.388840000000     0.335040000000     0.117070000000    -0.489037   
O44      O      0.345970000000     0.342170000000     0.109870000000    -0.489249   
O45      O      0.366450000000     0.284050000000     0.087870000000    -0.485639   
O46      O      0.333500000000     0.313630000000     0.099340000000    -0.51182    
O47      O      0.401850000000     0.324770000000     0.088470000000    -0.51136    
O48      O      0.373570000000     0.294780000000     0.118240000000    -0.508694   
O49      O      0.872000000000     0.666000000000     0.118350000000    -0.508262   
O50      O      0.864990000000     0.676540000000     0.087960000000    -0.485275   
O51      O      0.888270000000     0.625960000000     0.116960000000    -0.48957    
O52      O      0.845480000000     0.618240000000     0.109290000000    -0.489344   
O53      O      0.868180000000     0.647470000000     0.058800000000    -0.485652   
O54      O      0.832480000000     0.646930000000     0.099550000000    -0.511791   
O55      O      0.900990000000     0.635880000000     0.088320000000    -0.511841   
O56      O      0.861490000000     0.617030000000     0.069230000000    -0.508308   
O57      O      0.628840000000     0.044790000000     0.874010000000    -0.508941   
O58      O      0.659240000000     0.033970000000     0.881060000000    -0.485642   
O59      O      0.630060000000     0.085050000000     0.858530000000    -0.489295   
O60      O      0.637170000000     0.092130000000     0.901390000000    -0.489018   
O61      O      0.677390000000     0.093530000000     0.885550000000    -0.508792   
O62      O      0.647830000000     0.063620000000     0.913970000000    -0.511904   
O63      O      0.658620000000     0.074590000000     0.845570000000    -0.511828   
O64      O      0.688330000000     0.063190000000     0.878080000000    -0.485846   
O65      O      0.605190000000     0.100430000000     0.690780000000    -0.508536   
O66      O      0.574880000000     0.108100000000     0.701580000000    -0.485372   
O67      O      0.596480000000     0.127340000000     0.643260000000    -0.489178   
O68      O      0.603770000000     0.084490000000     0.650620000000    -0.489447   
O69      O      0.545650000000     0.105040000000     0.672540000000    -0.485707   
O70      O      0.575210000000     0.072060000000     0.661000000000    -0.511921   
O71      O      0.586420000000     0.140420000000     0.671900000000    -0.511705   
O72      O      0.556260000000     0.112030000000     0.642150000000    -0.508628   
O73      O      0.361410000000     0.117110000000     0.569650000000    -0.508349   
O74      O      0.368130000000     0.147540000000     0.559210000000    -0.48567    
O75      O      0.345350000000     0.118340000000     0.609680000000    -0.489273   
O76      O      0.388150000000     0.126070000000     0.617410000000    -0.489318   
O77      O      0.364890000000     0.176630000000     0.588360000000    -0.485259   
O78      O      0.400890000000     0.135970000000     0.588760000000    -0.511763   
O79      O      0.332370000000     0.147020000000     0.599900000000    -0.511825   
O80      O      0.371860000000     0.166100000000     0.618760000000    -0.508195   
O81      O      0.105070000000     0.861770000000     0.690400000000    -0.508256   
O82      O      0.074630000000     0.855020000000     0.701020000000    -0.485443   
O83      O      0.103920000000     0.877340000000     0.650230000000    -0.489297   
O84      O      0.096530000000     0.834500000000     0.642890000000    -0.489282   
O85      O      0.045590000000     0.858110000000     0.671800000000    -0.485496   
O86      O      0.086110000000     0.822010000000     0.671440000000    -0.511684   
O87      O      0.075290000000     0.890470000000     0.660330000000    -0.511678   
O88      O      0.056400000000     0.850680000000     0.641450000000    -0.50862    
O89      O      0.628580000000     0.916150000000     0.636370000000    -0.508389   
O90      O      0.658850000000     0.926500000000     0.628730000000    -0.485564   
O91      O      0.629740000000     0.876000000000     0.651610000000    -0.489299   
O92      O      0.647060000000     0.897050000000     0.596160000000    -0.511654   
O93      O      0.687970000000     0.897340000000     0.631930000000    -0.485392   
O94      O      0.637450000000     0.868330000000     0.608740000000    -0.489613   
O95      O      0.658480000000     0.885530000000     0.664350000000    -0.511474   
O96      O      0.677580000000     0.867080000000     0.624140000000    -0.507839   
O97      O      0.545750000000     0.857230000000     0.838090000000    -0.485687   
O98      O      0.556340000000     0.850490000000     0.868530000000    -0.508179   
O99      O      0.604010000000     0.876900000000     0.859560000000    -0.489418   
O100     O      0.596380000000     0.834110000000     0.867170000000    -0.489588   
O101     O      0.574850000000     0.854050000000     0.808950000000    -0.48554    
O102     O      0.586310000000     0.821270000000     0.838570000000    -0.511982   
O103     O      0.575380000000     0.889870000000     0.849580000000    -0.511782   
O104     O      0.605310000000     0.860650000000     0.819510000000    -0.508191   
O105     O      0.878920000000     0.861610000000     0.190550000000    -0.5086     
O106     O      0.909140000000     0.853640000000     0.201100000000    -0.486018   
O107     O      0.887570000000     0.833910000000     0.142900000000    -0.489002   
O108     O      0.880180000000     0.876790000000     0.150330000000    -0.489319   
O109     O      0.938330000000     0.856780000000     0.171960000000    -0.485924   
O110     O      0.908840000000     0.889360000000     0.160260000000    -0.511382   
O111     O      0.897440000000     0.821200000000     0.171570000000    -0.511404   
O112     O      0.927820000000     0.848960000000     0.141720000000    -0.508549   
O113     O      0.605210000000     0.599320000000     0.319380000000    -0.508394   
O114     O      0.574980000000     0.607290000000     0.308840000000    -0.485668   
O115     O      0.603950000000     0.584140000000     0.359620000000    -0.489498   
O116     O      0.596560000000     0.627030000000     0.367030000000    -0.489049   
O117     O      0.545800000000     0.604150000000     0.337970000000    -0.485745   
O118     O      0.586690000000     0.639730000000     0.338360000000    -0.511361   
O119     O      0.575300000000     0.571580000000     0.349680000000    -0.511953   
O120     O      0.556310000000     0.611980000000     0.368210000000    -0.508586   
O121     O      0.628410000000     0.416070000000     0.374970000000    -0.5081     
O122     O      0.658780000000     0.426480000000     0.382090000000    -0.485304   
O123     O      0.637490000000     0.368220000000     0.401700000000    -0.489417   
O124     O      0.629710000000     0.376040000000     0.358900000000    -0.489606   
O125     O      0.687910000000     0.397390000000     0.378800000000    -0.485494   
O126     O      0.658410000000     0.385710000000     0.346160000000    -0.511809   
O127     O      0.647100000000     0.396930000000     0.414600000000    -0.511896   
O128     O      0.677540000000     0.367000000000     0.385770000000    -0.508222   
O129     O      0.628890000000     0.544980000000     0.135140000000    -0.508956   
O130     O      0.659280000000     0.534030000000     0.127960000000    -0.485824   
O131     O      0.637430000000     0.592310000000     0.108390000000    -0.489078   
O132     O      0.630320000000     0.585170000000     0.151230000000    -0.489268   
O133     O      0.688480000000     0.563110000000     0.130900000000    -0.485698   
O134     O      0.658820000000     0.574480000000     0.163870000000    -0.511829   
O135     O      0.647940000000     0.563760000000     0.095380000000    -0.511698   
O136     O      0.677650000000     0.593560000000     0.124130000000    -0.508771   
O137     O      0.574730000000     0.355060000000     0.201450000000    -0.485744   
O138     O      0.605170000000     0.361790000000     0.190850000000    -0.508667   
O139     O      0.604050000000     0.377360000000     0.150670000000    -0.489256   
O140     O      0.596660000000     0.334530000000     0.143340000000    -0.489479   
O141     O      0.545710000000     0.358130000000     0.172220000000    -0.485684   
O142     O      0.586240000000     0.322040000000     0.171880000000    -0.511965   
O143     O      0.575420000000     0.390500000000     0.160760000000    -0.511671   
O144     O      0.556530000000     0.350700000000     0.141880000000    -0.50864    
O145     O      0.806430000000     0.867400000000     0.385770000000    -0.508974   
O146     O      0.795600000000     0.897840000000     0.379000000000    -0.486066   
O147     O      0.846630000000     0.868650000000     0.401530000000    -0.489317   
O148     O      0.853770000000     0.875800000000     0.358700000000    -0.489374   
O149     O      0.824790000000     0.926940000000     0.381960000000    -0.48554    
O150     O      0.825280000000     0.886490000000     0.346050000000    -0.51197    
O151     O      0.836120000000     0.897200000000     0.414540000000    -0.511954   
O152     O      0.855190000000     0.915990000000     0.374800000000    -0.509033   
O153     O      0.427690000000     0.848900000000     0.368210000000    -0.508333   
O154     O      0.438300000000     0.855910000000     0.337820000000    -0.485631   
O155     O      0.387460000000     0.833590000000     0.367090000000    -0.489029   
O156     O      0.380180000000     0.876450000000     0.359750000000    -0.489013   
O157     O      0.378760000000     0.860520000000     0.319580000000    -0.508818   
O158     O      0.408750000000     0.888880000000     0.349360000000    -0.511656   
O159     O      0.397540000000     0.820510000000     0.338450000000    -0.511379   
O160     O      0.409060000000     0.852840000000     0.308780000000    -0.485712   
O161     O      0.612090000000     0.794950000000     0.391560000000    -0.508169   
O162     O      0.619110000000     0.784420000000     0.421950000000    -0.485404   
O163     O      0.638610000000     0.842710000000     0.400610000000    -0.489323   
O164     O      0.595810000000     0.834980000000     0.392930000000    -0.48949    
O165     O      0.615870000000     0.813490000000     0.451110000000    -0.485522   
O166     O      0.583090000000     0.825070000000     0.421570000000    -0.512012   
O167     O      0.651610000000     0.814030000000     0.410360000000    -0.511693   
O168     O      0.622590000000     0.843930000000     0.440670000000    -0.508187   
O169     O      0.427650000000     0.349050000000     0.642100000000    -0.508526   
O170     O      0.438160000000     0.356890000000     0.672340000000    -0.4855     
O171     O      0.379990000000     0.376890000000     0.650710000000    -0.489099   
O172     O      0.387420000000     0.334020000000     0.643270000000    -0.489117   
O173     O      0.409000000000     0.353750000000     0.701470000000    -0.485491   
O174     O      0.397250000000     0.321320000000     0.671950000000    -0.511534   
O175     O      0.408660000000     0.389470000000     0.660620000000    -0.511401   
O176     O      0.378760000000     0.361720000000     0.690940000000    -0.508319   
O177     O      0.616270000000     0.313130000000     0.558860000000    -0.485986   
O178     O      0.622900000000     0.343590000000     0.569590000000    -0.50881    
O179     O      0.638710000000     0.342380000000     0.609750000000    -0.489085   
O180     O      0.583280000000     0.324510000000     0.588510000000    -0.512      
O181     O      0.619300000000     0.284060000000     0.588070000000    -0.485731   
O182     O      0.595880000000     0.335100000000     0.617010000000    -0.489202   
O183     O      0.651810000000     0.313800000000     0.599400000000    -0.511887   
O184     O      0.612150000000     0.294960000000     0.618460000000    -0.508796   
O185     O      0.122860000000     0.617160000000     0.569070000000    -0.508071   
O186     O      0.114920000000     0.647410000000     0.558610000000    -0.485588   
O187     O      0.095350000000     0.625980000000     0.616840000000    -0.489239   
O188     O      0.138210000000     0.618420000000     0.609260000000    -0.488959   
O189     O      0.118110000000     0.676580000000     0.587710000000    -0.485794   
O190     O      0.150730000000     0.647110000000     0.599470000000    -0.511496   
O191     O      0.082560000000     0.635630000000     0.588130000000    -0.511487   
O192     O      0.110430000000     0.666180000000     0.617970000000    -0.508241   
O193     O      0.129010000000     0.544950000000     0.373490000000    -0.508903   
O194     O      0.159400000000     0.534120000000     0.380570000000    -0.485727   
O195     O      0.130250000000     0.585220000000     0.358040000000    -0.48913    
O196     O      0.137330000000     0.592270000000     0.400900000000    -0.489125   
O197     O      0.177570000000     0.593670000000     0.385090000000    -0.508695   
O198     O      0.147960000000     0.563740000000     0.413470000000    -0.511913   
O199     O      0.158810000000     0.574740000000     0.345090000000    -0.511855   
O200     O      0.188500000000     0.563320000000     0.377640000000    -0.485788   
O201     O      0.371820000000     0.665970000000     0.391850000000    -0.508605   
O202     O      0.364630000000     0.676860000000     0.422240000000    -0.485667   
O203     O      0.345250000000     0.618540000000     0.400540000000    -0.489207   
O204     O      0.388070000000     0.625830000000     0.393300000000    -0.489446   
O205     O      0.367660000000     0.647800000000     0.451440000000    -0.485904   
O206     O      0.400670000000     0.636400000000     0.421810000000    -0.511763   
O207     O      0.332140000000     0.647120000000     0.410860000000    -0.511697   
O208     O      0.361030000000     0.617340000000     0.440720000000    -0.508759   
O209     O      0.306350000000     0.594030000000     0.624550000000    -0.507971   
O210     O      0.295970000000     0.563630000000     0.631480000000    -0.485396   
O211     O      0.346400000000     0.592780000000     0.608620000000    -0.489602   
O212     O      0.354160000000     0.585000000000     0.651440000000    -0.489584   
O213     O      0.325110000000     0.534540000000     0.628280000000    -0.4855     
O214     O      0.325460000000     0.575300000000     0.664180000000    -0.511756   
O215     O      0.336790000000     0.564070000000     0.595740000000    -0.511727   
O216     O      0.355480000000     0.544960000000     0.635360000000    -0.508266   
O217     O      0.177510000000     0.866960000000     0.885300000000    -0.508303   
O218     O      0.187890000000     0.897360000000     0.878370000000    -0.485345   
O219     O      0.129690000000     0.875990000000     0.858440000000    -0.489457   
O220     O      0.137470000000     0.868200000000     0.901250000000    -0.489322   
O221     O      0.128370000000     0.916020000000     0.874510000000    -0.507874   
O222     O      0.147080000000     0.896920000000     0.914130000000    -0.511577   
O223     O      0.158380000000     0.885690000000     0.845680000000    -0.511575   
O224     O      0.158750000000     0.926450000000     0.881590000000    -0.485225   
O225     O      0.306350000000     0.367400000000     0.886180000000    -0.508745   
O226     O      0.295520000000     0.397850000000     0.879400000000    -0.485815   
O227     O      0.346560000000     0.368630000000     0.901930000000    -0.489029   
O228     O      0.353700000000     0.375810000000     0.859100000000    -0.48901    
O229     O      0.324720000000     0.426930000000     0.882410000000    -0.485764   
O230     O      0.325200000000     0.386500000000     0.846470000000    -0.511947   
O231     O      0.336050000000     0.397180000000     0.914960000000    -0.511609   
O232     O      0.355110000000     0.415990000000     0.875210000000    -0.50887    
O233     O      0.373410000000     0.794770000000     0.891890000000    -0.508369   
O234     O      0.365710000000     0.784370000000     0.922150000000    -0.485444   
O235     O      0.388500000000     0.834970000000     0.893020000000    -0.489148   
O236     O      0.345630000000     0.842530000000     0.900590000000    -0.489348   
O237     O      0.368930000000     0.813550000000     0.951250000000    -0.485593   
O238     O      0.333100000000     0.813850000000     0.910380000000    -0.511684   
O239     O      0.401280000000     0.825310000000     0.921730000000    -0.511211   
O240     O      0.360980000000     0.843790000000     0.940780000000    -0.508206   
O241     O      0.427410000000     0.610280000000     0.868440000000    -0.508506   
O242     O      0.438220000000     0.602830000000     0.838100000000    -0.485653   
O243     O      0.379900000000     0.583610000000     0.859670000000    -0.489436   
O244     O      0.387270000000     0.626440000000     0.866980000000    -0.489229   
O245     O      0.409190000000     0.605920000000     0.808870000000    -0.485692   
O246     O      0.397710000000     0.638930000000     0.838440000000    -0.511767   
O247     O      0.408530000000     0.570480000000     0.849570000000    -0.511649   
O248     O      0.378750000000     0.599160000000     0.819480000000    -0.508524   
O249     O      0.871620000000     0.166030000000     0.891670000000    -0.508942   
O250     O      0.864490000000     0.176920000000     0.922060000000    -0.485882   
O251     O      0.845080000000     0.118600000000     0.900390000000    -0.489271   
O252     O      0.887910000000     0.125900000000     0.893100000000    -0.489216   
O253     O      0.867550000000     0.147860000000     0.951270000000    -0.485623   
O254     O      0.900520000000     0.136480000000     0.921610000000    -0.511748   
O255     O      0.831980000000     0.147170000000     0.910750000000    -0.511652   
O256     O      0.860920000000     0.117390000000     0.940540000000    -0.508757   
O257     O      0.610360000000     0.666070000000     0.892070000000    -0.508705   
O258     O      0.617530000000     0.676790000000     0.922430000000    -0.485926   
O259     O      0.582120000000     0.636070000000     0.921840000000    -0.511862   
O260     O      0.637970000000     0.618670000000     0.900420000000    -0.48941    
O261     O      0.614540000000     0.647560000000     0.951510000000    -0.485992   
O262     O      0.650450000000     0.647210000000     0.910920000000    -0.512007   
O263     O      0.595110000000     0.625800000000     0.893250000000    -0.489315   
O264     O      0.622240000000     0.617260000000     0.940650000000    -0.508713   
O265     O      0.861570000000     0.843660000000     0.569290000000    -0.508573   
O266     O      0.869270000000     0.813350000000     0.558430000000    -0.485569   
O267     O      0.888700000000     0.835110000000     0.616700000000    -0.489049   
O268     O      0.845830000000     0.842260000000     0.609520000000    -0.489316   
O269     O      0.866250000000     0.784130000000     0.587510000000    -0.485717   
O270     O      0.833350000000     0.813720000000     0.599020000000    -0.512029   
O271     O      0.901680000000     0.824850000000     0.588090000000    -0.511639   
O272     O      0.873440000000     0.794850000000     0.617870000000    -0.508619   
O273     O      0.878560000000     0.600290000000     0.690410000000    -0.508585   
O274     O      0.909020000000     0.606880000000     0.700970000000    -0.485451   
O275     O      0.879860000000     0.584020000000     0.650370000000    -0.489741   
O276     O      0.887470000000     0.626810000000     0.642760000000    -0.489457   
O277     O      0.938120000000     0.603710000000     0.671820000000    -0.485734   
O278     O      0.897550000000     0.639660000000     0.671360000000    -0.511678   
O279     O      0.908480000000     0.571060000000     0.660380000000    -0.512119   
O280     O      0.927510000000     0.610430000000     0.641390000000    -0.508563   
O281     O      0.855240000000     0.544850000000     0.873550000000    -0.508259   
O282     O      0.824970000000     0.534510000000     0.881220000000    -0.485555   
O283     O      0.846380000000     0.592690000000     0.901170000000    -0.488989   
O284     O      0.854090000000     0.585000000000     0.858310000000    -0.489186   
O285     O      0.795860000000     0.563660000000     0.877980000000    -0.485643   
O286     O      0.825350000000     0.575480000000     0.845570000000    -0.511562   
O287     O      0.836780000000     0.563960000000     0.913760000000    -0.511464   
O288     O      0.806240000000     0.593910000000     0.885780000000    -0.508377   
O289     O      0.878640000000     0.360550000000     0.819360000000    -0.508781   
O290     O      0.908940000000     0.352870000000     0.808560000000    -0.485741   
O291     O      0.880060000000     0.376500000000     0.859520000000    -0.489118   
O292     O      0.887350000000     0.333640000000     0.866880000000    -0.489536   
O293     O      0.938170000000     0.355930000000     0.837600000000    -0.486029   
O294     O      0.897390000000     0.320560000000     0.838250000000    -0.511932   
O295     O      0.908630000000     0.388920000000     0.849120000000    -0.511805   
O296     O      0.927570000000     0.348950000000     0.867990000000    -0.508746   
O297     O      0.873500000000     0.294770000000     0.391710000000    -0.508396   
O298     O      0.865870000000     0.284370000000     0.421990000000    -0.485497   
O299     O      0.888590000000     0.334970000000     0.392820000000    -0.489162   
O300     O      0.845720000000     0.342510000000     0.400440000000    -0.489363   
O301     O      0.869060000000     0.313560000000     0.451080000000    -0.485435   
O302     O      0.833210000000     0.313830000000     0.410260000000    -0.511472   
O303     O      0.901390000000     0.325340000000     0.421530000000    -0.511733   
O304     O      0.861110000000     0.343800000000     0.440600000000    -0.508124   
O305     O      0.806410000000     0.367390000000     0.624590000000    -0.509005   
O306     O      0.795480000000     0.397730000000     0.632060000000    -0.485909   
O307     O      0.853750000000     0.375860000000     0.651610000000    -0.489092   
O308     O      0.846650000000     0.368780000000     0.608760000000    -0.489002   
O309     O      0.824580000000     0.426940000000     0.629060000000    -0.485802   
O310     O      0.835990000000     0.397290000000     0.596170000000    -0.511616   
O311     O      0.825190000000     0.386330000000     0.664570000000    -0.511804   
O312     O      0.854970000000     0.416120000000     0.636140000000    -0.509026   
O313     O      0.306550000000     0.867350000000     0.124790000000    -0.508826   
O314     O      0.295610000000     0.897700000000     0.132230000000    -0.485656   
O315     O      0.353860000000     0.875810000000     0.151830000000    -0.489438   
O316     O      0.346770000000     0.868760000000     0.108960000000    -0.489447   
O317     O      0.324710000000     0.926910000000     0.129320000000    -0.48595    
O318     O      0.336130000000     0.897280000000     0.096390000000    -0.511878   
O319     O      0.325300000000     0.886280000000     0.164780000000    -0.511763   
O320     O      0.355100000000     0.916070000000     0.136360000000    -0.509097   
O321     O      0.927580000000     0.110280000000     0.368250000000    -0.508804   
O322     O      0.938390000000     0.102860000000     0.337910000000    -0.485934   
O323     O      0.880050000000     0.083620000000     0.359460000000    -0.489339   
O324     O      0.887450000000     0.126450000000     0.366810000000    -0.489458   
O325     O      0.909360000000     0.105930000000     0.308690000000    -0.485864   
O326     O      0.897840000000     0.138940000000     0.338260000000    -0.511825   
O327     O      0.908690000000     0.070490000000     0.349380000000    -0.511799   
O328     O      0.878920000000     0.099180000000     0.319290000000    -0.508259   
O329     O      0.074790000000     0.107240000000     0.808600000000    -0.485733   
O330     O      0.105020000000     0.099290000000     0.819140000000    -0.50869    
O331     O      0.075130000000     0.071530000000     0.849440000000    -0.51166    
O332     O      0.096360000000     0.126980000000     0.866800000000    -0.489337   
O333     O      0.056130000000     0.111920000000     0.867980000000    -0.508682   
O334     O      0.086520000000     0.139680000000     0.838130000000    -0.511776   
O335     O      0.103790000000     0.084100000000     0.859350000000    -0.489298   
O336     O      0.045620000000     0.104110000000     0.837740000000    -0.485951   
O337     O      0.110540000000     0.166240000000     0.391830000000    -0.508609   
O338     O      0.117680000000     0.176960000000     0.422200000000    -0.485786   
O339     O      0.095270000000     0.125980000000     0.393010000000    -0.489238   
O340     O      0.150620000000     0.147370000000     0.410750000000    -0.511741   
O341     O      0.122360000000     0.117430000000     0.440420000000    -0.508858   
O342     O      0.138140000000     0.118840000000     0.400210000000    -0.489309   
O343     O      0.082270000000     0.136250000000     0.421610000000    -0.511549   
O344     O      0.114670000000     0.147730000000     0.451290000000    -0.485548   
O345     O      0.128730000000     0.044970000000     0.634870000000    -0.508721   
O346     O      0.159130000000     0.034030000000     0.627680000000    -0.485607   
O347     O      0.137300000000     0.092330000000     0.608160000000    -0.48925    
O348     O      0.130130000000     0.085140000000     0.650990000000    -0.489152   
O349     O      0.188320000000     0.063120000000     0.630720000000    -0.485911   
O350     O      0.158630000000     0.074470000000     0.663630000000    -0.512071   
O351     O      0.147810000000     0.063790000000     0.595130000000    -0.511667   
O352     O      0.177500000000     0.093560000000     0.623920000000    -0.508844   
O353     O      0.806530000000     0.093940000000     0.124400000000    -0.508375   
O354     O      0.796160000000     0.063550000000     0.131360000000    -0.485342   
O355     O      0.846560000000     0.092720000000     0.108440000000    -0.489787   
O356     O      0.854370000000     0.084900000000     0.151250000000    -0.489359   
O357     O      0.825300000000     0.034460000000     0.128060000000    -0.48532    
O358     O      0.825670000000     0.075210000000     0.164000000000    -0.5116     
O359     O      0.836950000000     0.064010000000     0.095550000000    -0.5118     
O360     O      0.855670000000     0.044870000000     0.135160000000    -0.508053   
O361     O      0.622990000000     0.117180000000     0.069560000000    -0.508354   
O362     O      0.615020000000     0.147410000000     0.059080000000    -0.48545    
O363     O      0.595500000000     0.126010000000     0.117320000000    -0.489497   
O364     O      0.638370000000     0.118460000000     0.109720000000    -0.48947    
O365     O      0.618240000000     0.176600000000     0.088170000000    -0.485549   
O366     O      0.650880000000     0.147140000000     0.099900000000    -0.511515   
O367     O      0.582700000000     0.135650000000     0.088610000000    -0.511365   
O368     O      0.610580000000     0.166210000000     0.118450000000    -0.508094   
O369     O      0.355410000000     0.044790000000     0.373990000000    -0.508099   
O370     O      0.325140000000     0.034450000000     0.381650000000    -0.485285   
O371     O      0.346550000000     0.092630000000     0.401600000000    -0.489523   
O372     O      0.354270000000     0.084940000000     0.358740000000    -0.489033   
O373     O      0.306410000000     0.093870000000     0.386200000000    -0.508137   
O374     O      0.325530000000     0.075410000000     0.346010000000    -0.511519   
O375     O      0.336920000000     0.063920000000     0.414200000000    -0.511705   
O376     O      0.296030000000     0.063620000000     0.378380000000    -0.485543   
O377     O      0.378700000000     0.100230000000     0.190840000000    -0.50832    
O378     O      0.409170000000     0.106820000000     0.201390000000    -0.485415   
O379     O      0.379980000000     0.083970000000     0.150800000000    -0.489281   
O380     O      0.397680000000     0.139590000000     0.171770000000    -0.511893   
O381     O      0.438260000000     0.103640000000     0.172260000000    -0.485364   
O382     O      0.387640000000     0.126750000000     0.143160000000    -0.489452   
O383     O      0.408610000000     0.070990000000     0.160780000000    -0.511757   
O384     O      0.427660000000     0.110360000000     0.141820000000    -0.50836    


