data_structure

_audit_creation_method RASPA-1.0
_audit_creation_date 2023-5-23
_audit_author_name 'Poobodin Mano'

_cell_length_a    45.8538
_cell_length_b    45.8739
_cell_length_c    45.1539
_cell_angle_alpha 89.9903
_cell_angle_beta  90.3336
_cell_angle_gamma 120.086
_cell_volume      82182.7

_symmetry_cell_setting          triclinic
_symmetry_space_group_name_Hall 'P 1'
_symmetry_space_group_name_H-M  'P 1'
_symmetry_Int_Tables_number     1

_symmetry_equiv_pos_as_xyz 'x,y,z'

loop_
_atom_site_label
_atom_site_type_symbol
_atom_site_fract_x
_atom_site_fract_y
_atom_site_fract_z
_atom_site_charge
C1       C      0.494810000000     0.334110000000     0.154960000000     0.404218   
C2       C      0.494530000000     0.422450000000     0.200520000000     0.404288   
C3       C      0.582840000000     0.422190000000     0.154080000000     0.404411   
C4       C      0.493870000000     0.423010000000     0.110100000000     0.403843   
C5       C      0.327570000000     0.501690000000     0.403970000000     0.404402   
C6       C      0.416390000000     0.500830000000     0.359490000000     0.403708   
C7       C      0.415680000000     0.589690000000     0.403670000000     0.404142   
C8       C      0.415940000000     0.501210000000     0.449900000000     0.403842   
C9       C      0.787630000000     0.334920000000     0.149980000000     0.404408   
C10      C      0.876540000000     0.423230000000     0.104700000000     0.404197   
C11      C      0.787870000000     0.422940000000     0.150870000000     0.404559   
C12      C      0.877640000000     0.423640000000     0.195120000000     0.40333    
C13      C      0.122770000000     0.501510000000     0.402190000000     0.404424   
C14      C      0.033430000000     0.501110000000     0.446290000000     0.40391    
C15      C      0.123150000000     0.589600000000     0.401350000000     0.404194   
C16      C      0.033800000000     0.501160000000     0.355880000000     0.403604   
C17      C      0.582820000000     0.129830000000     0.151300000000     0.404178   
C18      C      0.494430000000     0.040260000000     0.197120000000     0.403702   
C19      C      0.494710000000     0.129430000000     0.153070000000     0.404441   
C20      C      0.494300000000     0.040370000000     0.106700000000     0.403857   
C21      C      0.416370000000     0.794660000000     0.401820000000     0.404508   
C22      C      0.416780000000     0.883610000000     0.356140000000     0.404257   
C23      C      0.328290000000     0.794390000000     0.401280000000     0.40414    
C24      C      0.416840000000     0.884070000000     0.446560000000     0.403876   
C25      C      0.407740000000     0.918780000000     0.319340000000    -0.0204554  
C26      C      0.503470000000     0.004950000000     0.233800000000    -0.0203272  
C27      C      0.449930000000     0.003900000000     0.233020000000    -0.0204952  
C28      C      0.450090000000     0.981230000000     0.256360000000     0.014201   
C29      C      0.480620000000     0.981810000000     0.256800000000     0.0140885  
C30      C      0.486970000000     0.962410000000     0.276990000000    -0.0646766  
C31      C      0.461240000000     0.919740000000     0.320090000000    -0.020396   
C32      C      0.424220000000     0.961230000000     0.276100000000    -0.0647765  
C33      C      0.461090000000     0.942400000000     0.296720000000     0.0141017  
C34      C      0.430570000000     0.941840000000     0.296290000000     0.01421    
C35      C      0.450120000000     0.004800000000     0.069710000000    -0.0205306  
C36      C      0.461070000000     0.919870000000     0.483400000000    -0.0204165  
C37      C      0.408090000000     0.919960000000     0.482680000000    -0.0204649  
C38      C      0.430780000000     0.942760000000     0.506200000000     0.0141827  
C39      C      0.460980000000     0.942690000000     0.506610000000     0.0141813  
C40      C      0.486640000000     0.962260000000     0.026980000000    -0.0647652  
C41      C      0.503060000000     0.004620000000     0.070460000000    -0.0203791  
C42      C      0.424540000000     0.962410000000     0.526110000000    -0.0647762  
C43      C      0.480410000000     0.981900000000     0.046890000000     0.0141556  
C44      C      0.450210000000     0.981990000000     0.046470000000     0.0142042  
C45      C      0.163160000000     0.641660000000     0.374330000000    -0.0205794  
C46      C      0.275960000000     0.754720000000     0.428110000000    -0.020689   
C47      C      0.275850000000     0.754160000000     0.374290000000    -0.0205629  
C48      C      0.244120000000     0.725640000000     0.385830000000     0.0139235  
C49      C      0.244180000000     0.725950000000     0.416540000000     0.0139708  
C50      C      0.218190000000     0.699930000000     0.432750000000    -0.0648247  
C51      C      0.163230000000     0.642200000000     0.428150000000    -0.0206755  
C52      C      0.218080000000     0.699290000000     0.369650000000    -0.064786   
C53      C      0.191940000000     0.673780000000     0.416560000000     0.0139624  
C54      C      0.191890000000     0.673470000000     0.385850000000     0.0139228  
C55      C      0.746890000000     0.282680000000     0.123110000000    -0.0205928  
C56      C      0.635950000000     0.169690000000     0.177640000000    -0.0206919  
C57      C      0.634390000000     0.170000000000     0.123840000000    -0.02052    
C58      C      0.666430000000     0.198630000000     0.135130000000     0.0138717  
C59      C      0.667330000000     0.198470000000     0.165820000000     0.013981   
C60      C      0.693760000000     0.224610000000     0.181850000000    -0.0648227  
C61      C      0.748450000000     0.282420000000     0.176910000000    -0.0205788  
C62      C      0.691930000000     0.224950000000     0.118770000000    -0.0648069  
C63      C      0.719450000000     0.250740000000     0.165490000000     0.0139202  
C64      C      0.718570000000     0.250890000000     0.134790000000     0.0139291  
C65      C      0.913830000000     0.468100000000     0.231580000000    -0.0205033  
C66      C      0.998090000000     0.456910000000     0.319070000000    -0.0211026  
C67      C      0.998430000000     0.510080000000     0.319050000000    -0.0210357  
C68      C      0.975670000000     0.487390000000     0.295520000000     0.0142586  
C69      C      0.975470000000     0.457070000000     0.295530000000     0.0142426  
C70      C      0.955780000000     0.431330000000     0.275310000000    -0.0648384  
C71      C      0.913430000000     0.414890000000     0.231620000000    -0.0204216  
C72      C      0.956220000000     0.493700000000     0.275270000000    -0.0649143  
C73      C      0.936330000000     0.437640000000     0.255060000000     0.0141423  
C74      C      0.936550000000     0.467980000000     0.255040000000     0.014224   
C75      C      0.912230000000     0.467480000000     0.068280000000    -0.0204374  
C76      C      0.997260000000     0.456670000000     0.482370000000    -0.0212114  
C77      C      0.997640000000     0.509870000000     0.482380000000    -0.0211105  
C78      C      0.974570000000     0.487040000000     0.505420000000     0.0142157  
C79      C      0.974350000000     0.456700000000     0.505410000000     0.0143033  
C80      C      0.954500000000     0.430890000000     0.025280000000    -0.0648713  
C81      C      0.911910000000     0.414320000000     0.068280000000    -0.020317   
C82      C      0.954920000000     0.493240000000     0.525290000000    -0.0648139  
C83      C      0.934850000000     0.437100000000     0.045150000000     0.0141206  
C84      C      0.935050000000     0.467420000000     0.045150000000     0.0141381  
C85      C      0.428000000000     0.641700000000     0.376310000000    -0.0207332  
C86      C      0.429000000000     0.755100000000     0.429110000000    -0.0206496  
C87      C      0.428530000000     0.754410000000     0.375290000000    -0.0207354  
C88      C      0.431560000000     0.725860000000     0.387110000000     0.0139339  
C89      C      0.431840000000     0.726260000000     0.417820000000     0.0139367  
C90      C      0.431650000000     0.700250000000     0.434260000000    -0.06481    
C91      C      0.428510000000     0.642430000000     0.430130000000    -0.0206178  
C92      C      0.431070000000     0.699410000000     0.371150000000    -0.0648052  
C93      C      0.431560000000     0.674000000000     0.418290000000     0.0139183  
C94      C      0.431280000000     0.673590000000     0.387590000000     0.013952   
C95      C      0.275030000000     0.488730000000     0.376790000000    -0.0206945  
C96      C      0.162770000000     0.489480000000     0.429630000000    -0.0207219  
C97      C      0.162440000000     0.488520000000     0.375810000000    -0.0206963  
C98      C      0.191160000000     0.485700000000     0.387660000000     0.0139685  
C99      C      0.191350000000     0.486250000000     0.418370000000     0.0139573  
C100     C      0.217660000000     0.486800000000     0.434790000000    -0.0648318  
C101     C      0.275360000000     0.489670000000     0.430610000000    -0.020644   
C102     C      0.217270000000     0.485680000000     0.371690000000    -0.0648278  
C103     C      0.243570000000     0.486380000000     0.418820000000     0.0139355  
C104     C      0.243380000000     0.485840000000     0.388110000000     0.0139677  
C105     C      0.747340000000     0.435190000000     0.124650000000    -0.0207102  
C106     C      0.635890000000     0.434980000000     0.180240000000    -0.0206007  
C107     C      0.634590000000     0.434630000000     0.126430000000    -0.0206284  
C108     C      0.666630000000     0.437920000000     0.137500000000     0.0139495  
C109     C      0.667370000000     0.438110000000     0.168210000000     0.0139234  
C110     C      0.693770000000     0.438100000000     0.183990000000    -0.0647968  
C111     C      0.748580000000     0.435440000000     0.178470000000    -0.0206266  
C112     C      0.692270000000     0.437750000000     0.120890000000    -0.0648626  
C113     C      0.719600000000     0.438310000000     0.167380000000     0.0139018  
C114     C      0.718880000000     0.438160000000     0.136680000000     0.0139558  
C115     C      0.481170000000     0.168980000000     0.126890000000    -0.0206631  
C116     C      0.483400000000     0.282050000000     0.181720000000    -0.0206196  
C117     C      0.481290000000     0.281480000000     0.127930000000    -0.0206056  
C118     C      0.478650000000     0.249900000000     0.139270000000     0.0139004  
C119     C      0.479860000000     0.250220000000     0.169970000000     0.0139336  
C120     C      0.480700000000     0.224430000000     0.185910000000    -0.0648405  
C121     C      0.483320000000     0.169580000000     0.180690000000    -0.0207583  
C122     C      0.478200000000     0.223750000000     0.122830000000    -0.0647839  
C123     C      0.479850000000     0.198100000000     0.169480000000     0.0139895  
C124     C      0.478620000000     0.197760000000     0.138790000000     0.0139242  
C125     C      0.502290000000     0.467690000000     0.074140000000    -0.0204057  
C126     C      0.407170000000     0.456810000000     0.486330000000    -0.0204466  
C127     C      0.460030000000     0.510120000000     0.487060000000    -0.0205082  
C128     C      0.459990000000     0.487290000000     0.510360000000     0.0142164  
C129     C      0.429850000000     0.456890000000     0.509940000000     0.0141517  
C130     C      0.423710000000     0.431020000000     0.529860000000    -0.0647635  
C131     C      0.449450000000     0.414370000000     0.073410000000    -0.0204661  
C132     C      0.485680000000     0.493530000000     0.030720000000    -0.0647456  
C133     C      0.449400000000     0.437270000000     0.050230000000     0.0141594  
C134     C      0.479530000000     0.467670000000     0.050650000000     0.0141699  
C135     C      0.461070000000     0.509180000000     0.323730000000    -0.02046    
C136     C      0.450150000000     0.413800000000     0.236740000000    -0.0204887  
C137     C      0.503560000000     0.466560000000     0.237460000000    -0.020425   
C138     C      0.480710000000     0.466630000000     0.260550000000     0.014138   
C139     C      0.450260000000     0.436550000000     0.260140000000     0.0141944  
C140     C      0.424350000000     0.430520000000     0.279870000000    -0.0647888  
C141     C      0.407680000000     0.456410000000     0.323010000000    -0.0204514  
C142     C      0.486960000000     0.492380000000     0.280720000000    -0.0647564  
C143     C      0.430600000000     0.456260000000     0.300040000000     0.0141881  
C144     C      0.461050000000     0.486350000000     0.300450000000     0.0141495  
C145     C      0.494810000000     0.334110000000     0.654960000000     0.404175   
C146     C      0.494530000000     0.422460000000     0.700520000000     0.403881   
C147     C      0.582840000000     0.422190000000     0.654080000000     0.404413   
C148     C      0.493870000000     0.423000000000     0.610090000000     0.403835   
C149     C      0.327570000000     0.501690000000     0.903970000000     0.404311   
C150     C      0.416390000000     0.500830000000     0.859480000000     0.403877   
C151     C      0.415680000000     0.589690000000     0.903670000000     0.404144   
C152     C      0.415940000000     0.501210000000     0.949900000000     0.40371    
C153     C      0.787630000000     0.334920000000     0.649980000000     0.404037   
C154     C      0.876540000000     0.423230000000     0.604710000000     0.404571   
C155     C      0.787870000000     0.422940000000     0.650870000000     0.404323   
C156     C      0.877640000000     0.423640000000     0.695120000000     0.40333    
C157     C      0.122770000000     0.501500000000     0.902190000000     0.404384   
C158     C      0.033420000000     0.501100000000     0.946290000000     0.404311   
C159     C      0.123160000000     0.589600000000     0.901340000000     0.404228   
C160     C      0.033800000000     0.501160000000     0.855880000000     0.403601   
C161     C      0.582820000000     0.129820000000     0.651300000000     0.404201   
C162     C      0.494430000000     0.040250000000     0.697120000000     0.40367    
C163     C      0.494720000000     0.129430000000     0.653070000000     0.404466   
C164     C      0.494300000000     0.040370000000     0.606700000000     0.403854   
C165     C      0.416370000000     0.794660000000     0.901820000000     0.404513   
C166     C      0.416780000000     0.883600000000     0.856140000000     0.404192   
C167     C      0.328290000000     0.794390000000     0.901280000000     0.404509   
C168     C      0.416840000000     0.884070000000     0.946560000000     0.403777   
C169     C      0.407740000000     0.918780000000     0.819330000000    -0.0204389  
C170     C      0.503470000000     0.004950000000     0.733800000000    -0.0203454  
C171     C      0.449930000000     0.003900000000     0.733020000000    -0.0204754  
C172     C      0.450090000000     0.981220000000     0.756360000000     0.0142096  
C173     C      0.480620000000     0.981810000000     0.756800000000     0.0140933  
C174     C      0.486970000000     0.962410000000     0.776990000000    -0.0646829  
C175     C      0.461240000000     0.919740000000     0.820090000000    -0.0204101  
C176     C      0.424220000000     0.961230000000     0.776090000000    -0.0647749  
C177     C      0.461090000000     0.942400000000     0.796720000000     0.014114   
C178     C      0.430570000000     0.941840000000     0.796290000000     0.014193   
C179     C      0.450120000000     0.004800000000     0.569710000000    -0.0205271  
C180     C      0.461070000000     0.919870000000     0.983400000000    -0.020382   
C181     C      0.408090000000     0.919960000000     0.982680000000    -0.0204902  
C182     C      0.430770000000     0.942760000000     0.006200000000     0.0141984  
C183     C      0.460980000000     0.942690000000     0.006610000000     0.0141316  
C184     C      0.486640000000     0.962260000000     0.526970000000    -0.0647979  
C185     C      0.503070000000     0.004620000000     0.570460000000    -0.02051    
C186     C      0.424540000000     0.962410000000     0.026110000000    -0.0647979  
C187     C      0.480410000000     0.981900000000     0.546890000000     0.0142017  
C188     C      0.450210000000     0.981990000000     0.546470000000     0.0141868  
C189     C      0.163160000000     0.641670000000     0.874330000000    -0.0206207  
C190     C      0.275960000000     0.754720000000     0.928110000000    -0.0206256  
C191     C      0.275850000000     0.754160000000     0.874290000000    -0.0206236  
C192     C      0.244120000000     0.725640000000     0.885830000000     0.0139609  
C193     C      0.244180000000     0.725950000000     0.916540000000     0.0139384  
C194     C      0.218190000000     0.699930000000     0.932750000000    -0.0648018  
C195     C      0.163230000000     0.642200000000     0.928150000000    -0.0206494  
C196     C      0.218080000000     0.699290000000     0.869650000000    -0.0648137  
C197     C      0.191940000000     0.673780000000     0.916560000000     0.0139391  
C198     C      0.191890000000     0.673470000000     0.885850000000     0.0139563  
C199     C      0.746890000000     0.282680000000     0.623110000000    -0.0206507  
C200     C      0.635950000000     0.169690000000     0.677640000000    -0.0206915  
C201     C      0.634390000000     0.170000000000     0.623840000000    -0.0205235  
C202     C      0.666430000000     0.198630000000     0.635130000000     0.0138809  
C203     C      0.667330000000     0.198460000000     0.665820000000     0.0139753  
C204     C      0.693760000000     0.224610000000     0.681850000000    -0.0648218  
C205     C      0.748450000000     0.282410000000     0.676910000000    -0.0206594  
C206     C      0.691930000000     0.224950000000     0.618770000000    -0.0648192  
C207     C      0.719460000000     0.250740000000     0.665490000000     0.0139373  
C208     C      0.718570000000     0.250890000000     0.634790000000     0.0139468  
C209     C      0.913830000000     0.468100000000     0.731580000000    -0.0205203  
C210     C      0.998090000000     0.456910000000     0.819070000000    -0.0211129  
C211     C      0.998430000000     0.510080000000     0.819050000000    -0.0210233  
C212     C      0.975670000000     0.487390000000     0.795520000000     0.0142284  
C213     C      0.975470000000     0.457060000000     0.795530000000     0.0142626  
C214     C      0.955780000000     0.431330000000     0.775310000000    -0.0648577  
C215     C      0.913430000000     0.414890000000     0.731630000000    -0.0204227  
C216     C      0.956220000000     0.493700000000     0.775270000000    -0.064836   
C217     C      0.936330000000     0.437640000000     0.755060000000     0.0141613  
C218     C      0.936550000000     0.467970000000     0.755040000000     0.014196   
C219     C      0.912230000000     0.467480000000     0.568280000000    -0.0204371  
C220     C      0.997260000000     0.456670000000     0.982370000000    -0.0211877  
C221     C      0.997640000000     0.509870000000     0.982380000000    -0.0210293  
C222     C      0.974560000000     0.487030000000     0.005420000000     0.0141924  
C223     C      0.974360000000     0.456700000000     0.005410000000     0.0142807  
C224     C      0.954500000000     0.430890000000     0.525280000000    -0.0648907  
C225     C      0.911910000000     0.414320000000     0.568280000000    -0.0203529  
C226     C      0.954920000000     0.493240000000     0.025290000000    -0.0648113  
C227     C      0.934860000000     0.437100000000     0.545150000000     0.0141445  
C228     C      0.935050000000     0.467420000000     0.545150000000     0.0141337  
C229     C      0.428000000000     0.641700000000     0.876310000000    -0.0207299  
C230     C      0.429000000000     0.755100000000     0.929110000000    -0.0206552  
C231     C      0.428530000000     0.754420000000     0.875290000000    -0.0206869  
C232     C      0.431560000000     0.725860000000     0.887110000000     0.013902   
C233     C      0.431840000000     0.726260000000     0.917820000000     0.0139516  
C234     C      0.431650000000     0.700250000000     0.934260000000    -0.064822   
C235     C      0.428510000000     0.642430000000     0.930130000000    -0.0206539  
C236     C      0.431070000000     0.699410000000     0.871150000000    -0.0647882  
C237     C      0.431560000000     0.674000000000     0.918290000000     0.0139353  
C238     C      0.431280000000     0.673590000000     0.887590000000     0.0139414  
C239     C      0.275030000000     0.488730000000     0.876790000000    -0.0206883  
C240     C      0.162770000000     0.489480000000     0.929630000000    -0.0207103  
C241     C      0.162440000000     0.488520000000     0.875810000000    -0.0206827  
C242     C      0.191160000000     0.485700000000     0.887660000000     0.0139633  
C243     C      0.191350000000     0.486250000000     0.918370000000     0.0139583  
C244     C      0.217660000000     0.486800000000     0.934790000000    -0.0648342  
C245     C      0.275360000000     0.489680000000     0.930610000000    -0.0206526  
C246     C      0.217270000000     0.485680000000     0.871690000000    -0.0648194  
C247     C      0.243570000000     0.486380000000     0.918820000000     0.0139425  
C248     C      0.243380000000     0.485840000000     0.888120000000     0.0139618  
C249     C      0.747340000000     0.435190000000     0.624650000000    -0.0207167  
C250     C      0.635890000000     0.434980000000     0.680240000000    -0.0206054  
C251     C      0.634590000000     0.434630000000     0.626430000000    -0.0205896  
C252     C      0.666630000000     0.437920000000     0.637500000000     0.0139297  
C253     C      0.667370000000     0.438110000000     0.668210000000     0.0139356  
C254     C      0.693770000000     0.438100000000     0.683990000000    -0.0648134  
C255     C      0.748580000000     0.435440000000     0.678470000000    -0.0206747  
C256     C      0.692270000000     0.437750000000     0.620890000000    -0.0648474  
C257     C      0.719600000000     0.438310000000     0.667380000000     0.0139287  
C258     C      0.718880000000     0.438150000000     0.636680000000     0.0139449  
C259     C      0.481170000000     0.168970000000     0.626890000000    -0.0206393  
C260     C      0.483400000000     0.282040000000     0.681720000000    -0.0206631  
C261     C      0.481290000000     0.281480000000     0.627920000000    -0.0207372  
C262     C      0.478650000000     0.249900000000     0.639270000000     0.0139437  
C263     C      0.479860000000     0.250220000000     0.669970000000     0.0139449  
C264     C      0.480700000000     0.224430000000     0.685910000000    -0.0648424  
C265     C      0.483330000000     0.169580000000     0.680690000000    -0.0207529  
C266     C      0.478200000000     0.223750000000     0.622830000000    -0.0647914  
C267     C      0.479850000000     0.198100000000     0.669480000000     0.0139863  
C268     C      0.478630000000     0.197760000000     0.638790000000     0.0139089  
C269     C      0.502290000000     0.467690000000     0.574140000000    -0.0203945  
C270     C      0.407170000000     0.456810000000     0.986330000000    -0.0204441  
C271     C      0.460030000000     0.510120000000     0.987060000000    -0.0204913  
C272     C      0.459990000000     0.487300000000     0.010350000000     0.0141546  
C273     C      0.429850000000     0.456890000000     0.009940000000     0.0141632  
C274     C      0.423710000000     0.431030000000     0.029860000000    -0.0647401  
C275     C      0.449450000000     0.414370000000     0.573410000000    -0.0204768  
C276     C      0.485680000000     0.493540000000     0.530720000000    -0.0648183  
C277     C      0.449400000000     0.437270000000     0.550230000000     0.0141824  
C278     C      0.479540000000     0.467670000000     0.550650000000     0.0141674  
C279     C      0.461070000000     0.509180000000     0.823730000000    -0.0204345  
C280     C      0.450150000000     0.413800000000     0.736740000000    -0.0204946  
C281     C      0.503560000000     0.466560000000     0.737460000000    -0.0204435  
C282     C      0.480710000000     0.466630000000     0.760550000000     0.0141484  
C283     C      0.450250000000     0.436540000000     0.760140000000     0.0141981  
C284     C      0.424350000000     0.430520000000     0.779870000000    -0.0647926  
C285     C      0.407680000000     0.456410000000     0.823010000000    -0.0204326  
C286     C      0.486960000000     0.492380000000     0.780720000000    -0.0647579  
C287     C      0.430600000000     0.456260000000     0.800040000000     0.0141886  
C288     C      0.461050000000     0.486350000000     0.800450000000     0.0141464  
H1       H      0.446230000000     0.024100000000     0.242640000000     0.0476822  
H2       H      0.526920000000     0.025690000000     0.243830000000     0.0477401  
H3       H      0.510810000000     0.962870000000     0.277340000000     0.0467332  
H4       H      0.400390000000     0.960790000000     0.275760000000     0.0467523  
H5       H      0.400840000000     0.932480000000     0.335570000000     0.0461137  
H6       H      0.464860000000     0.899480000000     0.310480000000     0.0476415  
H7       H      0.429730000000     0.989710000000     0.216360000000     0.0460181  
H8       H      0.510410000000     0.991300000000     0.217530000000     0.0460267  
H9       H      0.481490000000     0.933930000000     0.336720000000     0.0459671  
H10      H      0.384270000000     0.898030000000     0.309350000000     0.0477307  
H11      H      0.401840000000     0.933970000000     0.466140000000     0.0459958  
H12      H      0.481630000000     0.933840000000     0.467220000000     0.0460456  
H13      H      0.510210000000     0.962190000000     0.027310000000     0.0467561  
H14      H      0.400960000000     0.962460000000     0.525790000000     0.0467937  
H15      H      0.447130000000     0.025370000000     0.059900000000     0.0478128  
H16      H      0.509280000000     0.990560000000     0.086970000000     0.046      
H17      H      0.384260000000     0.899480000000     0.492150000000     0.0478116  
H18      H      0.464140000000     0.899340000000     0.493230000000     0.0477639  
H19      H      0.526910000000     0.025110000000     0.061030000000     0.0477202  
H20      H      0.429520000000     0.990830000000     0.085850000000     0.0460663  
H21      H      0.270750000000     0.771760000000     0.361370000000     0.0466261  
H22      H      0.270900000000     0.772580000000     0.440590000000     0.0466275  
H23      H      0.218840000000     0.699560000000     0.456710000000     0.0465357  
H24      H      0.218640000000     0.698440000000     0.345710000000     0.0465139  
H25      H      0.145450000000     0.646680000000     0.361410000000     0.0466213  
H26      H      0.172010000000     0.628730000000     0.442940000000     0.046815   
H27      H      0.289390000000     0.745190000000     0.359930000000     0.0468147  
H28      H      0.289560000000     0.746050000000     0.442880000000     0.0468055  
H29      H      0.145560000000     0.647480000000     0.440620000000     0.0466354  
H30      H      0.171910000000     0.627900000000     0.359980000000     0.0468366  
H31      H      0.639160000000     0.152390000000     0.110640000000     0.0465417  
H32      H      0.641460000000     0.151930000000     0.189820000000     0.0466632  
H33      H      0.693840000000     0.225100000000     0.205820000000     0.0465272  
H34      H      0.690620000000     0.225680000000     0.094860000000     0.0464953  
H35      H      0.764250000000     0.277660000000     0.109840000000     0.0465614  
H36      H      0.740060000000     0.295910000000     0.191970000000     0.0468073  
H37      H      0.620360000000     0.178860000000     0.109820000000     0.0467568  
H38      H      0.622760000000     0.178360000000     0.192750000000     0.0468337  
H39      H      0.766550000000     0.277280000000     0.189040000000     0.0466058  
H40      H      0.737650000000     0.296320000000     0.109050000000     0.0467763  
H41      H      0.984430000000     0.516570000000     0.335280000000     0.0460853  
H42      H      0.983920000000     0.436450000000     0.335320000000     0.0460668  
H43      H      0.955590000000     0.407640000000     0.275340000000     0.0467483  
H44      H      0.956360000000     0.517360000000     0.275270000000     0.046764   
H45      H      0.893430000000     0.471480000000     0.241140000000     0.0478218  
H46      H      0.927350000000     0.408380000000     0.215310000000     0.0459474  
H47      H      0.019090000000     0.533770000000     0.309540000000     0.0481165  
H48      H      0.018580000000     0.453640000000     0.309570000000     0.0481374  
H49      H      0.892830000000     0.391220000000     0.241210000000     0.0478695  
H50      H      0.927950000000     0.488470000000     0.215250000000     0.0459751  
H51      H      0.018190000000     0.533490000000     0.492330000000     0.0480778  
H52      H      0.017610000000     0.453320000000     0.492310000000     0.0480736  
H53      H      0.954370000000     0.407230000000     0.025300000000     0.0467261  
H54      H      0.955100000000     0.516930000000     0.525310000000     0.0467187  
H55      H      0.926250000000     0.487910000000     0.084750000000     0.0460051  
H56      H      0.891300000000     0.390690000000     0.058400000000     0.047584   
H57      H      0.983870000000     0.516480000000     0.465840000000     0.0460656  
H58      H      0.983280000000     0.436330000000     0.465820000000     0.0461117  
H59      H      0.925780000000     0.407730000000     0.084750000000     0.0460095  
H60      H      0.891780000000     0.470720000000     0.058400000000     0.0476026  
H61      H      0.406000000000     0.745460000000     0.360710000000     0.0468075  
H62      H      0.406730000000     0.746520000000     0.443690000000     0.0468672  
H63      H      0.430650000000     0.699960000000     0.458210000000     0.0465202  
H64      H      0.429620000000     0.698490000000     0.347200000000     0.0465004  
H65      H      0.405420000000     0.627930000000     0.361810000000     0.0468003  
H66      H      0.451460000000     0.647680000000     0.442860000000     0.0466134  
H67      H      0.451310000000     0.771950000000     0.362540000000     0.0465598  
H68      H      0.452000000000     0.772970000000     0.441720000000     0.0465686  
H69      H      0.406220000000     0.629050000000     0.444760000000     0.0468214  
H70      H      0.450700000000     0.646600000000     0.363640000000     0.0465946  
H71      H      0.144600000000     0.465440000000     0.363330000000     0.0466428  
H72      H      0.145100000000     0.466850000000     0.442500000000     0.0466014  
H73      H      0.218420000000     0.488450000000     0.458720000000     0.0465328  
H74      H      0.217740000000     0.486490000000     0.347730000000     0.046542   
H75      H      0.269830000000     0.465680000000     0.364400000000     0.0466468  
H76      H      0.289050000000     0.512340000000     0.444960000000     0.0467852  
H77      H      0.171170000000     0.510660000000     0.360960000000     0.0468515  
H78      H      0.171700000000     0.512140000000     0.443940000000     0.0468502  
H79      H      0.270300000000     0.467060000000     0.443600000000     0.0465994  
H80      H      0.288550000000     0.510890000000     0.362000000000     0.0468358  
H81      H      0.620680000000     0.412110000000     0.111950000000     0.0467866  
H82      H      0.622680000000     0.412650000000     0.194890000000     0.0468049  
H83      H      0.693730000000     0.437000000000     0.207940000000     0.0465037  
H84      H      0.691090000000     0.436390000000     0.096950000000     0.0465271  
H85      H      0.738240000000     0.412740000000     0.110050000000     0.0468316  
H86      H      0.766570000000     0.458390000000     0.191030000000     0.0465322  
H87      H      0.639330000000     0.457360000000     0.113780000000     0.046565   
H88      H      0.641250000000     0.457880000000     0.192990000000     0.046614   
H89      H      0.740150000000     0.413120000000     0.193030000000     0.0468524  
H90      H      0.764740000000     0.458020000000     0.111870000000     0.0465729  
H91      H      0.457960000000     0.276220000000     0.115850000000     0.0466049  
H92      H      0.461060000000     0.277040000000     0.195030000000     0.0465399  
H93      H      0.482870000000     0.225300000000     0.209820000000     0.0465044  
H94      H      0.478470000000     0.224110000000     0.098860000000     0.0465271  
H95      H      0.457800000000     0.151100000000     0.114730000000     0.0466181  
H96      H      0.506310000000     0.178560000000     0.194670000000     0.0468361  
H97      H      0.503130000000     0.294940000000     0.112840000000     0.0468312  
H98      H      0.506380000000     0.295810000000     0.195760000000     0.0467747  
H99      H      0.460980000000     0.151980000000     0.193880000000     0.0465535  
H100     H      0.502980000000     0.177630000000     0.111730000000     0.046844   
H101     H      0.480680000000     0.516840000000     0.470960000000     0.0460938  
H102     H      0.401000000000     0.436490000000     0.469860000000     0.0460284  
H103     H      0.400200000000     0.407270000000     0.529510000000     0.0467833  
H104     H      0.509220000000     0.517260000000     0.031020000000     0.0467473  
H105     H      0.526170000000     0.471260000000     0.064650000000     0.0477969  
H106     H      0.428900000000     0.407640000000     0.089610000000     0.0460223  
H107     H      0.462920000000     0.533670000000     0.496820000000     0.0477574  
H108     H      0.383310000000     0.453370000000     0.495730000000     0.047723   
H109     H      0.446460000000     0.390820000000     0.063540000000     0.047844   
H110     H      0.508430000000     0.487900000000     0.090720000000     0.0459524  
H111     H      0.527060000000     0.469380000000     0.247430000000     0.0476692  
H112     H      0.446660000000     0.389950000000     0.246330000000     0.047622   
H113     H      0.400560000000     0.407050000000     0.279520000000     0.0467785  
H114     H      0.510710000000     0.515890000000     0.281020000000     0.0467639  
H115     H      0.481270000000     0.515350000000     0.340420000000     0.0459768  
H116     H      0.384160000000     0.453470000000     0.312960000000     0.0477802  
H117     H      0.510390000000     0.487190000000     0.221250000000     0.0460992  
H118     H      0.429850000000     0.407620000000     0.220150000000     0.0460469  
H119     H      0.400860000000     0.435880000000     0.339340000000     0.0460449  
H120     H      0.464670000000     0.533030000000     0.314040000000     0.0477236  
H121     H      0.446230000000     0.024100000000     0.742640000000     0.0476846  
H122     H      0.526920000000     0.025690000000     0.743820000000     0.0477541  
H123     H      0.510810000000     0.962870000000     0.777340000000     0.0467357  
H124     H      0.400390000000     0.960790000000     0.775760000000     0.0467533  
H125     H      0.400840000000     0.932490000000     0.835570000000     0.0460965  
H126     H      0.464860000000     0.899480000000     0.810480000000     0.0476434  
H127     H      0.429730000000     0.989700000000     0.716360000000     0.0460088  
H128     H      0.510410000000     0.991300000000     0.717530000000     0.046023   
H129     H      0.481490000000     0.933930000000     0.836720000000     0.0459694  
H130     H      0.384270000000     0.898030000000     0.809350000000     0.0477331  
H131     H      0.401840000000     0.933970000000     0.966140000000     0.0460024  
H132     H      0.481630000000     0.933840000000     0.967220000000     0.0460369  
H133     H      0.510210000000     0.962190000000     0.527310000000     0.0467702  
H134     H      0.400960000000     0.962460000000     0.025790000000     0.046793   
H135     H      0.447130000000     0.025370000000     0.559900000000     0.0478157  
H136     H      0.509280000000     0.990560000000     0.586970000000     0.0460408  
H137     H      0.384270000000     0.899480000000     0.992150000000     0.0478333  
H138     H      0.464140000000     0.899340000000     0.993230000000     0.047762   
H139     H      0.526910000000     0.025110000000     0.561030000000     0.0477644  
H140     H      0.429520000000     0.990830000000     0.585850000000     0.0460669  
H141     H      0.270750000000     0.771760000000     0.861370000000     0.0466362  
H142     H      0.270910000000     0.772580000000     0.940590000000     0.0466233  
H143     H      0.218840000000     0.699560000000     0.956710000000     0.0465313  
H144     H      0.218640000000     0.698440000000     0.845710000000     0.0465222  
H145     H      0.145450000000     0.646680000000     0.861410000000     0.0466405  
H146     H      0.172010000000     0.628730000000     0.942940000000     0.0468054  
H147     H      0.289390000000     0.745190000000     0.859930000000     0.0468234  
H148     H      0.289560000000     0.746050000000     0.942880000000     0.0467894  
H149     H      0.145560000000     0.647480000000     0.940620000000     0.046643   
H150     H      0.171910000000     0.627900000000     0.859980000000     0.0468355  
H151     H      0.639160000000     0.152390000000     0.610640000000     0.0465391  
H152     H      0.641460000000     0.151930000000     0.689820000000     0.0466587  
H153     H      0.693850000000     0.225100000000     0.705820000000     0.0465285  
H154     H      0.690630000000     0.225680000000     0.594860000000     0.0465032  
H155     H      0.764250000000     0.277660000000     0.609840000000     0.0465766  
H156     H      0.740060000000     0.295910000000     0.691980000000     0.0468196  
H157     H      0.620360000000     0.178860000000     0.609820000000     0.0467676  
H158     H      0.622760000000     0.178360000000     0.692750000000     0.0468433  
H159     H      0.766540000000     0.277280000000     0.689030000000     0.0466467  
H160     H      0.737660000000     0.296320000000     0.609050000000     0.0468058  
H161     H      0.984430000000     0.516570000000     0.835280000000     0.0460828  
H162     H      0.983920000000     0.436450000000     0.835320000000     0.0460659  
H163     H      0.955590000000     0.407640000000     0.775340000000     0.0467528  
H164     H      0.956360000000     0.517370000000     0.775270000000     0.0467243  
H165     H      0.893430000000     0.471470000000     0.741140000000     0.0478394  
H166     H      0.927350000000     0.408380000000     0.715310000000     0.0459451  
H167     H      0.019090000000     0.533770000000     0.809540000000     0.0481159  
H168     H      0.018580000000     0.453640000000     0.809570000000     0.0481387  
H169     H      0.892830000000     0.391210000000     0.741210000000     0.0478642  
H170     H      0.927950000000     0.488470000000     0.715250000000     0.0459832  
H171     H      0.018190000000     0.533490000000     0.992330000000     0.0480649  
H172     H      0.017610000000     0.453320000000     0.992300000000     0.0480829  
H173     H      0.954370000000     0.407230000000     0.525300000000     0.0467378  
H174     H      0.955100000000     0.516930000000     0.025310000000     0.0467129  
H175     H      0.926250000000     0.487910000000     0.584750000000     0.0460156  
H176     H      0.891300000000     0.390690000000     0.558410000000     0.0476053  
H177     H      0.983870000000     0.516480000000     0.965830000000     0.046041   
H178     H      0.983280000000     0.436330000000     0.965820000000     0.0460978  
H179     H      0.925780000000     0.407730000000     0.584750000000     0.0460209  
H180     H      0.891780000000     0.470720000000     0.558400000000     0.047607   
H181     H      0.406000000000     0.745460000000     0.860710000000     0.0467943  
H182     H      0.406730000000     0.746520000000     0.943690000000     0.0468695  
H183     H      0.430650000000     0.699960000000     0.958210000000     0.0465249  
H184     H      0.429620000000     0.698490000000     0.847200000000     0.0464966  
H185     H      0.405420000000     0.627930000000     0.861810000000     0.0468038  
H186     H      0.451460000000     0.647680000000     0.942850000000     0.0466305  
H187     H      0.451310000000     0.771950000000     0.862540000000     0.0465478  
H188     H      0.452000000000     0.772970000000     0.941720000000     0.046571   
H189     H      0.406220000000     0.629050000000     0.944760000000     0.0468329  
H190     H      0.450700000000     0.646600000000     0.863640000000     0.0465938  
H191     H      0.144600000000     0.465440000000     0.863330000000     0.0466344  
H192     H      0.145100000000     0.466850000000     0.942500000000     0.0465941  
H193     H      0.218420000000     0.488450000000     0.958720000000     0.0465345  
H194     H      0.217740000000     0.486490000000     0.847730000000     0.0465409  
H195     H      0.269830000000     0.465680000000     0.864400000000     0.046636   
H196     H      0.289050000000     0.512340000000     0.944960000000     0.0467976  
H197     H      0.171170000000     0.510660000000     0.860960000000     0.0468479  
H198     H      0.171700000000     0.512140000000     0.943940000000     0.0468462  
H199     H      0.270300000000     0.467060000000     0.943600000000     0.0465918  
H200     H      0.288550000000     0.510890000000     0.862000000000     0.0468416  
H201     H      0.620690000000     0.412110000000     0.611950000000     0.0467691  
H202     H      0.622680000000     0.412650000000     0.694890000000     0.0468059  
H203     H      0.693730000000     0.437010000000     0.707940000000     0.0465103  
H204     H      0.691090000000     0.436390000000     0.596950000000     0.0465241  
H205     H      0.738240000000     0.412740000000     0.610050000000     0.0468309  
H206     H      0.766570000000     0.458380000000     0.691030000000     0.0465528  
H207     H      0.639330000000     0.457360000000     0.613770000000     0.0465479  
H208     H      0.641250000000     0.457880000000     0.692990000000     0.0466162  
H209     H      0.740150000000     0.413120000000     0.693030000000     0.0468537  
H210     H      0.764740000000     0.458020000000     0.611870000000     0.0465738  
H211     H      0.457960000000     0.276220000000     0.615850000000     0.046652   
H212     H      0.461060000000     0.277040000000     0.695030000000     0.046555   
H213     H      0.482870000000     0.225300000000     0.709820000000     0.0465069  
H214     H      0.478470000000     0.224110000000     0.598860000000     0.046532   
H215     H      0.457800000000     0.151100000000     0.614730000000     0.0466189  
H216     H      0.506310000000     0.178560000000     0.694670000000     0.0468369  
H217     H      0.503130000000     0.294940000000     0.612840000000     0.0468667  
H218     H      0.506380000000     0.295810000000     0.695760000000     0.0467871  
H219     H      0.460980000000     0.151980000000     0.693880000000     0.046554   
H220     H      0.502980000000     0.177630000000     0.611730000000     0.0468358  
H221     H      0.480680000000     0.516850000000     0.970960000000     0.0461018  
H222     H      0.401000000000     0.436490000000     0.969860000000     0.046033   
H223     H      0.400200000000     0.407270000000     0.029510000000     0.0467593  
H224     H      0.509220000000     0.517250000000     0.531020000000     0.0467946  
H225     H      0.526170000000     0.471250000000     0.564650000000     0.0477918  
H226     H      0.428900000000     0.407640000000     0.589610000000     0.046032   
H227     H      0.462920000000     0.533670000000     0.996820000000     0.0477529  
H228     H      0.383310000000     0.453370000000     0.995730000000     0.0477262  
H229     H      0.446460000000     0.390820000000     0.563540000000     0.0478429  
H230     H      0.508430000000     0.487900000000     0.590720000000     0.0459597  
H231     H      0.527060000000     0.469380000000     0.747430000000     0.0476776  
H232     H      0.446660000000     0.389950000000     0.746330000000     0.0476302  
H233     H      0.400560000000     0.407050000000     0.779520000000     0.04678    
H234     H      0.510710000000     0.515890000000     0.781020000000     0.0467654  
H235     H      0.481270000000     0.515350000000     0.840420000000     0.0459695  
H236     H      0.384160000000     0.453470000000     0.812960000000     0.0477728  
H237     H      0.510390000000     0.487190000000     0.721250000000     0.0461028  
H238     H      0.429850000000     0.407620000000     0.720150000000     0.0460504  
H239     H      0.400860000000     0.435880000000     0.839340000000     0.0460336  
H240     H      0.464670000000     0.533030000000     0.814040000000     0.04772    
In1      In     0.516300000000     0.400610000000     0.154970000000     2.40461    
In2      In     0.394100000000     0.523170000000     0.404250000000     2.40444    
In3      In     0.832810000000     0.401410000000     0.150080000000     2.40501    
In4      In     0.077900000000     0.523130000000     0.401480000000     2.40514    
In5      In     0.516330000000     0.084580000000     0.152070000000     2.40506    
In6      In     0.394810000000     0.839570000000     0.401410000000     2.40513    
In7      In     0.516300000000     0.400610000000     0.654970000000     2.4045     
In8      In     0.394100000000     0.523170000000     0.904250000000     2.40446    
In9      In     0.832810000000     0.401410000000     0.650080000000     2.40513    
In10     In     0.077900000000     0.523130000000     0.901480000000     2.40504    
In11     In     0.516340000000     0.084580000000     0.652070000000     2.40505    
In12     In     0.394810000000     0.839570000000     0.901410000000     2.40526    
N1       N      0.427820000000     0.905820000000     0.333390000000    -0.166123   
N2       N      0.483380000000     0.017900000000     0.219770000000    -0.16594    
N3       N      0.483240000000     0.018110000000     0.083850000000    -0.165929   
N4       N      0.427920000000     0.906460000000     0.469300000000    -0.165983   
N5       N      0.147080000000     0.622710000000     0.401270000000    -0.165977   
N6       N      0.295150000000     0.770510000000     0.401210000000    -0.165975   
N7       N      0.763750000000     0.301790000000     0.149970000000    -0.166031   
N8       N      0.615950000000     0.153740000000     0.150920000000    -0.165955   
N9       N      0.900160000000     0.434810000000     0.217840000000    -0.165856   
N10      N      0.011610000000     0.490130000000     0.332910000000    -0.165538   
N11      N      0.898650000000     0.434230000000     0.081920000000    -0.166077   
N12      N      0.010990000000     0.489990000000     0.468820000000    -0.165571   
N13      N      0.425040000000     0.622820000000     0.403390000000    -0.165992   
N14      N      0.425660000000     0.770850000000     0.402050000000    -0.166023   
N15      N      0.294430000000     0.492380000000     0.403820000000    -0.165992   
N16      N      0.146540000000     0.492160000000     0.402530000000    -0.165993   
N17      N      0.764050000000     0.432210000000     0.151290000000    -0.16608    
N18      N      0.615980000000     0.431570000000     0.153620000000    -0.166092   
N19      N      0.485390000000     0.153210000000     0.153550000000    -0.166025   
N20      N      0.485520000000     0.300990000000     0.154910000000    -0.165985   
N21      N      0.482610000000     0.434280000000     0.087470000000    -0.165932   
N22      N      0.426950000000     0.490140000000     0.472880000000    -0.165886   
N23      N      0.427620000000     0.489570000000     0.336960000000    -0.165898   
N24      N      0.483530000000     0.433490000000     0.223390000000    -0.166044   
N25      N      0.427820000000     0.905820000000     0.833380000000    -0.166015   
N26      N      0.483380000000     0.017900000000     0.719770000000    -0.165985   
N27      N      0.483240000000     0.018110000000     0.583850000000    -0.165909   
N28      N      0.427920000000     0.906460000000     0.969310000000    -0.165919   
N29      N      0.147080000000     0.622710000000     0.901270000000    -0.165998   
N30      N      0.295150000000     0.770510000000     0.901220000000    -0.166045   
N31      N      0.763750000000     0.301790000000     0.649970000000    -0.165941   
N32      N      0.615950000000     0.153740000000     0.650920000000    -0.165934   
N33      N      0.900160000000     0.434810000000     0.717840000000    -0.165853   
N34      N      0.011610000000     0.490130000000     0.832910000000    -0.165538   
N35      N      0.898650000000     0.434230000000     0.581930000000    -0.166116   
N36      N      0.010990000000     0.489990000000     0.968820000000    -0.165705   
N37      N      0.425040000000     0.622820000000     0.903390000000    -0.165989   
N38      N      0.425660000000     0.770850000000     0.902050000000    -0.166029   
N39      N      0.294430000000     0.492390000000     0.903820000000    -0.165966   
N40      N      0.146540000000     0.492160000000     0.902530000000    -0.166056   
N41      N      0.764050000000     0.432220000000     0.651290000000    -0.165997   
N42      N      0.615980000000     0.431570000000     0.653620000000    -0.166094   
N43      N      0.485390000000     0.153210000000     0.653550000000    -0.165972   
N44      N      0.485520000000     0.300990000000     0.654910000000    -0.165954   
N45      N      0.482610000000     0.434280000000     0.587470000000    -0.165948   
N46      N      0.426950000000     0.490140000000     0.972880000000    -0.165858   
N47      N      0.427620000000     0.489570000000     0.836960000000    -0.165999   
N48      N      0.483530000000     0.433490000000     0.723390000000    -0.166013   
O1       O      0.476330000000     0.394010000000     0.121010000000    -0.497228   
O2       O      0.522640000000     0.440780000000     0.121650000000    -0.498102   
O3       O      0.523400000000     0.440090000000     0.189460000000    -0.497708   
O4       O      0.498990000000     0.350460000000     0.131380000000    -0.496904   
O5       O      0.565660000000     0.416860000000     0.130720000000    -0.497881   
O6       O      0.500800000000     0.350930000000     0.178550000000    -0.498035   
O7       O      0.476580000000     0.393850000000     0.188810000000    -0.498624   
O8       O      0.566820000000     0.417300000000     0.177900000000    -0.496944   
O9       O      0.387290000000     0.483350000000     0.438170000000    -0.498071   
O10      O      0.433640000000     0.530080000000     0.438790000000    -0.497636   
O11      O      0.387400000000     0.483290000000     0.370370000000    -0.497499   
O12      O      0.344300000000     0.507180000000     0.427630000000    -0.497805   
O13      O      0.410810000000     0.573430000000     0.427410000000    -0.497031   
O14      O      0.344020000000     0.506360000000     0.380450000000    -0.497047   
O15      O      0.434210000000     0.529570000000     0.371000000000    -0.498142   
O16      O      0.410340000000     0.572770000000     0.380220000000    -0.497594   
O17      O      0.866620000000     0.441420000000     0.183800000000    -0.497647   
O18      O      0.866210000000     0.394730000000     0.183880000000    -0.497139   
O19      O      0.865650000000     0.441040000000     0.116040000000    -0.498037   
O20      O      0.799850000000     0.351400000000     0.173590000000    -0.497057   
O21      O      0.799820000000     0.417880000000     0.174250000000    -0.497879   
O22      O      0.798490000000     0.351610000000     0.126420000000    -0.498004   
O23      O      0.865480000000     0.394490000000     0.116050000000    -0.498751   
O24      O      0.798900000000     0.417840000000     0.127070000000    -0.497311   
O25      O      0.044750000000     0.483370000000     0.367290000000    -0.497253   
O26      O      0.044950000000     0.529950000000     0.367290000000    -0.497717   
O27      O      0.044370000000     0.483290000000     0.435060000000    -0.498297   
O28      O      0.111460000000     0.507050000000     0.425600000000    -0.497917   
O29      O      0.111630000000     0.572800000000     0.377790000000    -0.497622   
O30      O      0.111130000000     0.506180000000     0.378420000000    -0.497245   
O31      O      0.044790000000     0.529970000000     0.435100000000    -0.497923   
O32      O      0.111560000000     0.573240000000     0.424980000000    -0.497272   
O33      O      0.522990000000     0.051310000000     0.118390000000    -0.49849    
O34      O      0.476640000000     0.051590000000     0.117720000000    -0.497195   
O35      O      0.523430000000     0.051880000000     0.186210000000    -0.496994   
O36      O      0.566920000000     0.118050000000     0.175080000000    -0.496568   
O37      O      0.498820000000     0.117640000000     0.129240000000    -0.496938   
O38      O      0.565560000000     0.118480000000     0.127910000000    -0.498105   
O39      O      0.476430000000     0.050860000000     0.185490000000    -0.498803   
O40      O      0.500820000000     0.118280000000     0.176400000000    -0.498464   
O41      O      0.434570000000     0.872930000000     0.435550000000    -0.497705   
O42      O      0.388070000000     0.872920000000     0.434970000000    -0.49774    
O43      O      0.434700000000     0.872920000000     0.367790000000    -0.498128   
O44      O      0.411130000000     0.805910000000     0.378120000000    -0.497782   
O45      O      0.344830000000     0.805670000000     0.377720000000    -0.497395   
O46      O      0.411440000000     0.806390000000     0.425300000000    -0.497677   
O47      O      0.387860000000     0.872200000000     0.367140000000    -0.49825    
O48      O      0.344940000000     0.806190000000     0.424910000000    -0.497269   
O49      O      0.476330000000     0.394010000000     0.621010000000    -0.497247   
O50      O      0.522640000000     0.440780000000     0.621650000000    -0.498035   
O51      O      0.523410000000     0.440100000000     0.689460000000    -0.497427   
O52      O      0.498980000000     0.350460000000     0.631380000000    -0.496888   
O53      O      0.565660000000     0.416860000000     0.630720000000    -0.497886   
O54      O      0.500800000000     0.350930000000     0.678550000000    -0.498012   
O55      O      0.476580000000     0.393850000000     0.688810000000    -0.498427   
O56      O      0.566820000000     0.417300000000     0.677900000000    -0.496941   
O57      O      0.387290000000     0.483350000000     0.938170000000    -0.498059   
O58      O      0.433650000000     0.530080000000     0.938790000000    -0.497497   
O59      O      0.387400000000     0.483300000000     0.870370000000    -0.497638   
O60      O      0.344300000000     0.507180000000     0.927630000000    -0.497772   
O61      O      0.410810000000     0.573430000000     0.927410000000    -0.497057   
O62      O      0.344030000000     0.506370000000     0.880450000000    -0.497062   
O63      O      0.434210000000     0.529570000000     0.870990000000    -0.498068   
O64      O      0.410340000000     0.572770000000     0.880220000000    -0.497583   
O65      O      0.866620000000     0.441420000000     0.683800000000    -0.497635   
O66      O      0.866210000000     0.394730000000     0.683880000000    -0.49715    
O67      O      0.865660000000     0.441040000000     0.616040000000    -0.498229   
O68      O      0.799850000000     0.351400000000     0.673590000000    -0.496972   
O69      O      0.799830000000     0.417880000000     0.674250000000    -0.497885   
O70      O      0.798490000000     0.351610000000     0.626410000000    -0.497726   
O71      O      0.865480000000     0.394490000000     0.616050000000    -0.498914   
O72      O      0.798900000000     0.417830000000     0.627070000000    -0.497319   
O73      O      0.044750000000     0.483370000000     0.867290000000    -0.49726    
O74      O      0.044950000000     0.529950000000     0.867290000000    -0.497702   
O75      O      0.044370000000     0.483300000000     0.935070000000    -0.498535   
O76      O      0.111460000000     0.507050000000     0.925600000000    -0.49787    
O77      O      0.111630000000     0.572800000000     0.877790000000    -0.49772    
O78      O      0.111130000000     0.506180000000     0.878420000000    -0.497193   
O79      O      0.044790000000     0.529970000000     0.935100000000    -0.497937   
O80      O      0.111560000000     0.573250000000     0.924980000000    -0.497086   
O81      O      0.522990000000     0.051310000000     0.618390000000    -0.498584   
O82      O      0.476640000000     0.051590000000     0.617720000000    -0.497103   
O83      O      0.523430000000     0.051880000000     0.686210000000    -0.497094   
O84      O      0.566920000000     0.118050000000     0.675080000000    -0.496702   
O85      O      0.498820000000     0.117640000000     0.629240000000    -0.496865   
O86      O      0.565560000000     0.118480000000     0.627910000000    -0.498231   
O87      O      0.476430000000     0.050860000000     0.685490000000    -0.498614   
O88      O      0.500820000000     0.118280000000     0.676400000000    -0.498401   
O89      O      0.434570000000     0.872930000000     0.935550000000    -0.497689   
O90      O      0.388070000000     0.872920000000     0.934970000000    -0.497718   
O91      O      0.434700000000     0.872920000000     0.867790000000    -0.498209   
O92      O      0.411130000000     0.805910000000     0.878120000000    -0.497794   
O93      O      0.344830000000     0.805670000000     0.877720000000    -0.497496   
O94      O      0.411440000000     0.806390000000     0.925300000000    -0.497685   
O95      O      0.387860000000     0.872200000000     0.867140000000    -0.498226   
O96      O      0.344940000000     0.806190000000     0.924900000000    -0.497547   


