data_structure

_audit_creation_method RASPA-1.0
_audit_creation_date 2023-5-23
_audit_author_name 'Poobodin Mano'

_cell_length_a    64.5209
_cell_length_b    64.9286
_cell_length_c    37.3816
_cell_angle_alpha 90.0229
_cell_angle_beta  89.9781
_cell_angle_gamma 120.462
_cell_volume      134985

_symmetry_cell_setting          triclinic
_symmetry_space_group_name_Hall 'P 1'
_symmetry_space_group_name_H-M  'P 1'
_symmetry_Int_Tables_number     1

_symmetry_equiv_pos_as_xyz 'x,y,z'

loop_
_atom_site_label
_atom_site_type_symbol
_atom_site_fract_x
_atom_site_fract_y
_atom_site_fract_z
_atom_site_charge
C1       C      0.404210000000     0.535880000000     0.168840000000     0.404864   
C2       C      0.453310000000     0.529270000000     0.082960000000     0.405467   
C3       C      0.394080000000     0.539940000000     0.059350000000     0.402419   
C4       C      0.463440000000     0.595740000000     0.121990000000     0.407269   
C5       C      0.601390000000     0.465300000000     0.916160000000     0.403879   
C6       C      0.551090000000     0.467840000000     0.001750000000     0.407463   
C7       C      0.547460000000     0.402740000000     0.966630000000     0.408968   
C8       C      0.613010000000     0.461290000000     0.027930000000     0.404511   
C9       C      0.930190000000     0.801420000000     0.077850000000     0.403558   
C10      C      0.883130000000     0.745610000000     0.166250000000     0.403775   
C11      C      0.941370000000     0.816330000000     0.187100000000     0.404016   
C12      C      0.870620000000     0.799420000000     0.122690000000     0.408463   
C13      C      0.735240000000     0.537420000000     0.322280000000     0.412229   
C14      C      0.791880000000     0.585260000000     0.247940000000     0.402421   
C15      C      0.788590000000     0.519070000000     0.280000000000     0.410612   
C16      C      0.731710000000     0.517540000000     0.209780000000     0.405089   
C17      C      0.268690000000     0.800670000000     0.271220000000     0.410697   
C18      C      0.214200000000     0.796550000000     0.344290000000     0.401308   
C19      C      0.212370000000     0.730780000000     0.314110000000     0.411781   
C20      C      0.271480000000     0.784890000000     0.384540000000     0.406689   
C21      C      0.064970000000     0.861690000000     0.477370000000     0.410183   
C22      C      0.118640000000     0.865100000000     0.403080000000     0.401514   
C23      C      0.061910000000     0.878530000000     0.365220000000     0.407224   
C24      C      0.122130000000     0.931400000000     0.435330000000     0.41254    
C25      C      0.594650000000     0.131380000000     0.418200000000     0.403599   
C26      C      0.546200000000     0.077930000000     0.505740000000     0.405888   
C27      C      0.608160000000     0.147240000000     0.528400000000     0.404198   
C28      C      0.539800000000     0.137340000000     0.469250000000     0.408526   
C29      C      0.400430000000     0.861600000000     0.674580000000     0.404887   
C30      C      0.450310000000     0.918210000000     0.588990000000     0.405617   
C31      C      0.460070000000     0.862070000000     0.628490000000     0.406783   
C32      C      0.390790000000     0.848330000000     0.565060000000     0.402526   
C33      C      0.934710000000     0.125550000000     0.573550000000     0.40326    
C34      C      0.886160000000     0.134960000000     0.658840000000     0.404157   
C35      C      0.873760000000     0.068440000000     0.617710000000     0.408185   
C36      C      0.943830000000     0.122880000000     0.683660000000     0.403947   
C37      C      0.738940000000     0.197480000000     0.811190000000     0.411666   
C38      C      0.793100000000     0.203020000000     0.734240000000     0.401422   
C39      C      0.733390000000     0.212770000000     0.700170000000     0.405785   
C40      C      0.794560000000     0.267750000000     0.767780000000     0.412697   
C41      C      0.270760000000     0.462290000000     0.767240000000     0.410218   
C42      C      0.216640000000     0.412260000000     0.841940000000     0.401314   
C43      C      0.274210000000     0.482160000000     0.879860000000     0.407377   
C44      C      0.214380000000     0.475460000000     0.809530000000     0.412029   
C45      C      0.064250000000     0.198040000000     0.977020000000     0.410756   
C46      C      0.119530000000     0.248150000000     0.903870000000     0.401345   
C47      C      0.121510000000     0.185040000000     0.936970000000     0.412232   
C48      C      0.062480000000     0.178420000000     0.864770000000     0.406822   
C49      C      0.871970000000     0.801770000000     0.577840000000     0.402862   
C50      C      0.863560000000     0.744750000000     0.663890000000     0.404478   
C51      C      0.929730000000     0.800100000000     0.621870000000     0.407889   
C52      C      0.874460000000     0.814140000000     0.687800000000     0.403985   
C53      C      0.803220000000     0.532720000000     0.814140000000     0.411203   
C54      C      0.799830000000     0.583420000000     0.736850000000     0.40316    
C55      C      0.789310000000     0.514490000000     0.701610000000     0.406148   
C56      C      0.734880000000     0.522700000000     0.769650000000     0.411978   
C57      C      0.202220000000     0.127540000000     0.072940000000     0.405572   
C58      C      0.260070000000     0.135100000000     0.156530000000     0.405457   
C59      C      0.190440000000     0.124780000000     0.182610000000     0.40214    
C60      C      0.202570000000     0.068690000000     0.118640000000     0.406381   
C61      C      0.471650000000     0.198660000000     0.318530000000     0.403525   
C62      C      0.421680000000     0.197640000000     0.232920000000     0.406808   
C63      C      0.485180000000     0.263050000000     0.269200000000     0.41004    
C64      C      0.491600000000     0.205240000000     0.207330000000     0.405982   
C65      C      0.861150000000     0.453890000000     0.417750000000     0.403651   
C66      C      0.918420000000     0.459510000000     0.502650000000     0.404601   
C67      C      0.851110000000     0.453320000000     0.527390000000     0.403614   
C68      C      0.861530000000     0.395360000000     0.461170000000     0.405845   
C69      C      0.135860000000     0.533790000000     0.671100000000     0.403982   
C70      C      0.079290000000     0.525370000000     0.584540000000     0.404412   
C71      C      0.134210000000     0.591830000000     0.626830000000     0.407877   
C72      C      0.150080000000     0.538080000000     0.561890000000     0.403098   
C73      C      0.141770000000     0.199560000000     0.474300000000     0.411074   
C74      C      0.137290000000     0.249090000000     0.400720000000     0.401634   
C75      C      0.126100000000     0.180220000000     0.361080000000     0.407294   
C76      C      0.071440000000     0.184400000000     0.431220000000     0.411447   
C77      C      0.198120000000     0.463640000000     0.271610000000     0.409764   
C78      C      0.202030000000     0.413520000000     0.345400000000     0.401202   
C79      C      0.268150000000     0.476740000000     0.312540000000     0.412549   
C80      C      0.214930000000     0.483190000000     0.383910000000     0.407242   
C81      C      0.459690000000     0.859670000000     0.165620000000     0.402424   
C82      C      0.468250000000     0.915490000000     0.077610000000     0.403862   
C83      C      0.455710000000     0.845160000000     0.056000000000     0.4045     
C84      C      0.401990000000     0.861190000000     0.122500000000     0.408956   
C85      C      0.534330000000     0.127780000000     0.921890000000     0.4089     
C86      C      0.537970000000     0.076110000000     0.997220000000     0.402603   
C87      C      0.603070000000     0.134600000000     0.955630000000     0.413854   
C88      C      0.554750000000     0.147620000000     0.031040000000     0.406534   
C89      C      0.797740000000     0.860190000000     0.978060000000     0.411016   
C90      C      0.747850000000     0.864430000000     0.904290000000     0.401526   
C91      C      0.811950000000     0.930320000000     0.936690000000     0.411717   
C92      C      0.817930000000     0.877400000000     0.865750000000     0.407168   
C93      C      0.532600000000     0.798550000000     0.767990000000     0.40994    
C94      C      0.582720000000     0.795150000000     0.842640000000     0.401037   
C95      C      0.511850000000     0.780840000000     0.879530000000     0.406672   
C96      C      0.520010000000     0.728940000000     0.808280000000     0.412969   
C97      C      0.134930000000     0.593840000000     0.174150000000     0.403837   
C98      C      0.077930000000     0.543450000000     0.088400000000     0.405305   
C99      C      0.147120000000     0.603720000000     0.064450000000     0.403323   
C100     C      0.134500000000     0.534960000000     0.129130000000     0.406768   
C101     C      0.863770000000     0.400220000000     0.916590000000     0.404097   
C102     C      0.917470000000     0.448000000000     0.004410000000     0.403818   
C103     C      0.861610000000     0.458280000000     0.961180000000     0.410269   
C104     C      0.846090000000     0.389090000000     0.025780000000     0.404085   
C105     C      0.200060000000     0.067470000000     0.576190000000     0.403462   
C106     C      0.255870000000     0.114540000000     0.664140000000     0.404313   
C107     C      0.201580000000     0.126740000000     0.620710000000     0.408896   
C108     C      0.184560000000     0.056680000000     0.685480000000     0.403933   
C109     C      0.474040000000     0.267020000000     0.823210000000     0.407085   
C110     C      0.416890000000     0.208000000000     0.745980000000     0.406566   
C111     C      0.481600000000     0.269120000000     0.710800000000     0.404807   
C112     C      0.472940000000     0.204120000000     0.783750000000     0.405486   
C113     C      0.193120000000     0.725950000000     0.771640000000     0.410957   
C114     C      0.196780000000     0.780240000000     0.845310000000     0.401805   
C115     C      0.208610000000     0.723200000000     0.884860000000     0.407254   
C116     C      0.262810000000     0.783010000000     0.814750000000     0.411438   
C117     C      0.136970000000     0.933360000000     0.976250000000     0.409492   
C118     C      0.132050000000     0.879290000000     0.902120000000     0.40122    
C119     C      0.066330000000     0.877570000000     0.934510000000     0.412751   
C120     C      0.120430000000     0.936940000000     0.863940000000     0.407279   
C121     C      0.540800000000     0.394810000000     0.420720000000     0.405252   
C122     C      0.536230000000     0.450130000000     0.501330000000     0.405751   
C123     C      0.540860000000     0.390100000000     0.531980000000     0.403719   
C124     C      0.598290000000     0.458710000000     0.461820000000     0.404115   
C125     C      0.463530000000     0.593900000000     0.664830000000     0.4034     
C126     C      0.471780000000     0.545810000000     0.578790000000     0.404857   
C127     C      0.404940000000     0.534220000000     0.620390000000     0.409038   
C128     C      0.459500000000     0.603750000000     0.555210000000     0.403201   
C129     C      0.870240000000     0.066940000000     0.077210000000     0.403341   
C130     C      0.861850000000     0.116060000000     0.161900000000     0.404565   
C131     C      0.872920000000     0.057690000000     0.187010000000     0.403478   
C132     C      0.928410000000     0.126870000000     0.121100000000     0.408298   
C133     C      0.797950000000     0.262360000000     0.313190000000     0.409521   
C134     C      0.794350000000     0.209880000000     0.235390000000     0.400425   
C135     C      0.728080000000     0.205860000000     0.270400000000     0.413764   
C136     C      0.781950000000     0.267650000000     0.201960000000     0.405054   
C137     C      0.798820000000     0.933300000000     0.475380000000     0.4109     
C138     C      0.748820000000     0.878860000000     0.402040000000     0.40135    
C139     C      0.818780000000     0.936510000000     0.363110000000     0.406428   
C140     C      0.813310000000     0.877700000000     0.433890000000     0.411763   
C141     C      0.533590000000     0.729760000000     0.266310000000     0.409665   
C142     C      0.583390000000     0.783130000000     0.341110000000     0.400567   
C143     C      0.519050000000     0.784600000000     0.309510000000     0.412629   
C144     C      0.513440000000     0.724850000000     0.378940000000     0.407137   
C145     C      0.705610000000     0.864070000000     0.414700000000    -0.0203721  
C146     C      0.626590000000     0.797840000000     0.328610000000    -0.020622   
C147     C      0.615780000000     0.812430000000     0.381180000000    -0.0202581  
C148     C      0.642240000000     0.823180000000     0.378890000000     0.0140594  
C149     C      0.648400000000     0.814850000000     0.348920000000     0.0141942  
C150     C      0.672430000000     0.822380000000     0.340860000000    -0.0649033  
C151     C      0.716390000000     0.849450000000     0.362140000000    -0.0203707  
C152     C      0.659760000000     0.839500000000     0.402490000000    -0.0648289  
C153     C      0.689940000000     0.838700000000     0.364460000000     0.0141982  
C154     C      0.683790000000     0.847030000000     0.394430000000     0.0140766  
C155     C      0.880150000000     0.042480000000     0.244360000000    -0.0206312  
C156     C      0.818780000000     0.948780000000     0.300220000000    -0.0205964  
C157     C      0.851470000000     0.975510000000     0.339520000000    -0.0206098  
C158     C      0.853010000000     0.987380000000     0.304840000000     0.0134301  
C159     C      0.834270000000     0.972110000000     0.282570000000     0.0141617  
C160     C      0.830720000000     0.979630000000     0.249220000000    -0.0652889  
C161     C      0.846670000000     0.015660000000     0.206280000000    -0.0204336  
C162     C      0.869460000000     0.011000000000     0.294700000000    -0.0645006  
C163     C      0.847140000000     0.003170000000     0.239100000000     0.0141321  
C164     C      0.866090000000     0.018440000000     0.261050000000     0.0135831  
C165     C      0.798120000000     0.183170000000     0.191520000000    -0.0204042  
C166     C      0.856460000000     0.140810000000     0.207840000000    -0.0203335  
C167     C      0.834090000000     0.131600000000     0.152080000000    -0.0205755  
C168     C      0.829040000000     0.147230000000     0.174910000000     0.0143432  
C169     C      0.841850000000     0.152570000000     0.206660000000     0.0136194  
C170     C      0.840460000000     0.167540000000     0.232430000000    -0.0646243  
C171     C      0.820890000000     0.193000000000     0.246970000000    -0.0206348  
C172     C      0.814000000000     0.156380000000     0.167250000000    -0.0650381  
C173     C      0.825440000000     0.176740000000     0.224730000000     0.01393    
C174     C      0.812520000000     0.171230000000     0.193070000000     0.0142471  
C175     C      0.452520000000     0.618510000000     0.497240000000    -0.0207382  
C176     C      0.512670000000     0.712680000000     0.442120000000    -0.0204512  
C177     C      0.481400000000     0.685170000000     0.401540000000    -0.0206189  
C178     C      0.479470000000     0.673500000000     0.436560000000     0.0134642  
C179     C      0.497410000000     0.689210000000     0.459560000000     0.0140414  
C180     C      0.500500000000     0.682010000000     0.493460000000    -0.0651915  
C181     C      0.484640000000     0.646100000000     0.536650000000    -0.020419   
C182     C      0.463390000000     0.649740000000     0.446460000000    -0.0645505  
C183     C      0.484450000000     0.658310000000     0.503340000000     0.0140217  
C184     C      0.466280000000     0.642610000000     0.480640000000     0.0136207  
C185     C      0.511120000000     0.468620000000     0.490650000000    -0.020189   
C186     C      0.499000000000     0.529520000000     0.588000000000    -0.0205502  
C187     C      0.477440000000     0.521950000000     0.531720000000    -0.0203613  
C188     C      0.491490000000     0.509620000000     0.532500000000     0.0139469  
C189     C      0.503850000000     0.514000000000     0.564550000000     0.0140844  
C190     C      0.518210000000     0.504000000000     0.571940000000    -0.0648279  
C191     C      0.533110000000     0.476590000000     0.546600000000    -0.0200385  
C192     C      0.492670000000     0.494890000000     0.506150000000    -0.0647814  
C193     C      0.519490000000     0.489370000000     0.545510000000     0.0140286  
C194     C      0.507010000000     0.484880000000     0.513550000000     0.014247   
C195     C      0.160230000000     0.864570000000     0.914650000000    -0.0205528  
C196     C      0.168500000000     0.794850000000     0.832550000000    -0.0203772  
C197     C      0.195060000000     0.810500000000     0.884050000000    -0.020208   
C198     C      0.179970000000     0.821650000000     0.881190000000     0.014203   
C199     C      0.164820000000     0.812750000000     0.851810000000     0.0140576  
C200     C      0.148790000000     0.820600000000     0.843350000000    -0.0647522  
C201     C      0.133690000000     0.849040000000     0.863100000000    -0.0203076  
C202     C      0.179930000000     0.838870000000     0.903760000000    -0.0649495  
C203     C      0.148750000000     0.837830000000     0.865920000000     0.0140083  
C204     C      0.163890000000     0.846710000000     0.895310000000     0.0142248  
C205     C      0.508130000000     0.358810000000     0.568710000000    -0.020506   
C206     C      0.515880000000     0.298370000000     0.672340000000    -0.0208461  
C207     C      0.475930000000     0.292610000000     0.663800000000    -0.0204746  
C208     C      0.493400000000     0.311560000000     0.639810000000     0.0146161  
C209     C      0.516310000000     0.315160000000     0.644710000000     0.0129429  
C210     C      0.536070000000     0.332920000000     0.625520000000    -0.0640323  
C211     C      0.548770000000     0.366470000000     0.577520000000    -0.0207762  
C212     C      0.488810000000     0.325030000000     0.615340000000    -0.0656769  
C213     C      0.531480000000     0.346590000000     0.601040000000     0.0130018  
C214     C      0.508410000000     0.342510000000     0.596030000000     0.0146602  
C215     C      0.162780000000     0.041710000000     0.743570000000    -0.0205927  
C216     C      0.131010000000     0.948720000000     0.800340000000    -0.0204053  
C217     C      0.127270000000     0.975940000000     0.840880000000    -0.0204316  
C218     C      0.136280000000     0.987340000000     0.805430000000     0.0134095  
C219     C      0.138470000000     0.971800000000     0.782420000000     0.014064   
C220     C      0.148130000000     0.978880000000     0.748060000000    -0.0651922  
C221     C      0.167080000000     0.014400000000     0.703980000000    -0.020294   
C222     C      0.143450000000     0.010820000000     0.795150000000    -0.064473   
C223     C      0.155210000000     0.002260000000     0.737760000000     0.0140157  
C224     C      0.152850000000     0.017820000000     0.760530000000     0.0135499  
C225     C      0.387100000000     0.180040000000     0.701710000000    -0.0198394  
C226     C      0.285250000000     0.137850000000     0.712150000000    -0.0202704  
C227     C      0.299590000000     0.129500000000     0.656960000000    -0.0203403  
C228     C      0.319980000000     0.144360000000     0.681250000000     0.0141367  
C229     C      0.311810000000     0.149200000000     0.712670000000     0.0139301  
C230     C      0.327770000000     0.163630000000     0.739480000000    -0.0647993  
C231     C      0.372830000000     0.188940000000     0.756490000000    -0.019957   
C232     C      0.344530000000     0.153520000000     0.675000000000    -0.0648024  
C233     C      0.352330000000     0.172800000000     0.733220000000     0.0143237  
C234     C      0.360470000000     0.167800000000     0.701920000000     0.014141   
C235     C      0.825630000000     0.374250000000     0.084850000000    -0.0206974  
C236     C      0.791320000000     0.279970000000     0.138350000000    -0.0205324  
C237     C      0.790180000000     0.307620000000     0.181040000000    -0.0207164  
C238     C      0.798680000000     0.319250000000     0.145570000000     0.0134287  
C239     C      0.799410000000     0.303460000000     0.121350000000     0.0141136  
C240     C      0.808300000000     0.310570000000     0.086610000000    -0.065282   
C241     C      0.827440000000     0.346460000000     0.043170000000    -0.0205738  
C242     C      0.806610000000     0.343060000000     0.136170000000    -0.0644809  
C243     C      0.816150000000     0.334290000000     0.077220000000     0.0141049  
C244     C      0.815230000000     0.350110000000     0.101190000000     0.013545   
C245     C      0.204240000000     0.685500000000     0.909670000000    -0.0206133  
C246     C      0.160500000000     0.644920000000     0.043930000000    -0.0203481  
C247     C      0.169890000000     0.619770000000     0.007280000000    -0.0205497  
C248     C      0.178190000000     0.643210000000     0.989590000000     0.0133815  
C249     C      0.172930000000     0.657530000000     0.010710000000     0.0142986  
C250     C      0.178220000000     0.680260000000     0.999520000000    -0.0654077  
C251     C      0.195390000000     0.710570000000     0.947460000000    -0.0204282  
C252     C      0.188870000000     0.650840000000     0.955790000000    -0.0643235  
C253     C      0.189120000000     0.687980000000     0.966000000000     0.014196   
C254     C      0.194220000000     0.673660000000     0.944590000000     0.0133842  
C255     C      0.048760000000     0.520250000000     0.040130000000    -0.0204431  
C256     C      0.946500000000     0.470280000000     0.053380000000    -0.0201985  
C257     C      0.961620000000     0.466730000000     0.995500000000    -0.0209599  
C258     C      0.981780000000     0.481680000000     0.020070000000     0.0151378  
C259     C      0.973170000000     0.483710000000     0.053090000000     0.0133426  
C260     C      0.988800000000     0.497240000000     0.080820000000    -0.0638511  
C261     C      0.033720000000     0.523810000000     0.098080000000    -0.0201148  
C262     C      0.006480000000     0.493080000000     0.012920000000    -0.0658335  
C263     C      0.013520000000     0.508620000000     0.073670000000     0.0131022  
C264     C      0.022110000000     0.506590000000     0.040640000000     0.0143932  
C265     C      0.455020000000     0.613060000000     0.715950000000    -0.0206168  
C266     C      0.527450000000     0.697840000000     0.783050000000    -0.0202384  
C267     C      0.486420000000     0.687690000000     0.795920000000    -0.0202242  
C268     C      0.486690000000     0.668290000000     0.775270000000     0.013962   
C269     C      0.510130000000     0.673990000000     0.768310000000     0.0141817  
C270     C      0.515180000000     0.659530000000     0.746470000000    -0.0648444  
C271     C      0.496030000000     0.622350000000     0.705350000000    -0.0207285  
C272     C      0.467040000000     0.648070000000     0.760110000000    -0.0646446  
C273     C      0.495520000000     0.639000000000     0.732040000000     0.0144411  
C274     C      0.472100000000     0.633550000000     0.738390000000     0.0138879  
C275     C      0.846330000000     0.971040000000     0.949560000000    -0.0202756  
C276     C      0.838050000000     0.038920000000     0.035920000000    -0.0206974  
C277     C      0.878710000000     0.046540000000     0.027840000000    -0.0205834  
C278     C      0.861580000000     0.026170000000     0.005270000000     0.0139129  
C279     C      0.838330000000     0.021670000000     0.010180000000     0.0144878  
C280     C      0.818510000000     0.001420000000     0.995450000000    -0.064951   
C281     C      0.805560000000     0.962540000000     0.959960000000    -0.0201443  
C282     C      0.866300000000     0.010940000000     0.984720000000    -0.0646172  
C283     C      0.823240000000     0.986240000000     0.974800000000     0.0141368  
C284     C      0.846510000000     0.990990000000     0.969240000000     0.0139156  
C285     C      0.704550000000     0.835730000000     0.916410000000    -0.0203303  
C286     C      0.625990000000     0.824270000000     0.831060000000    -0.0205049  
C287     C      0.614870000000     0.798130000000     0.882880000000    -0.0203627  
C288     C      0.641350000000     0.813900000000     0.880820000000     0.0141106  
C289     C      0.647690000000     0.828810000000     0.851280000000     0.0141852  
C290     C      0.671780000000     0.845370000000     0.843430000000    -0.0649028  
C291     C      0.715660000000     0.861870000000     0.864610000000    -0.0203193  
C292     C      0.658740000000     0.814720000000     0.904170000000    -0.0648192  
C293     C      0.689170000000     0.846190000000     0.866800000000     0.0141781  
C294     C      0.682830000000     0.831290000000     0.896340000000     0.0140844  
C295     C      0.500860000000     0.188090000000     0.785980000000    -0.0206542  
C296     C      0.497970000000     0.126930000000     0.897860000000    -0.0201411  
C297     C      0.534840000000     0.145940000000     0.863020000000    -0.0204184  
C298     C      0.516840000000     0.151120000000     0.847320000000     0.0138682  
C299     C      0.495840000000     0.140320000000     0.867310000000     0.0141845  
C300     C      0.477070000000     0.144650000000     0.860350000000    -0.0648523  
C301     C      0.464440000000     0.169470000000     0.821860000000    -0.020305   
C302     C      0.520130000000     0.166730000000     0.819070000000    -0.0644452  
C303     C      0.480250000000     0.160050000000     0.831930000000     0.0141699  
C304     C      0.501140000000     0.170740000000     0.811690000000     0.0140393  
C305     C      0.451480000000     0.831530000000     0.216030000000    -0.0206577  
C306     C      0.525120000000     0.823060000000     0.285860000000    -0.0202416  
C307     C      0.484480000000     0.790370000000     0.296730000000    -0.0203944  
C308     C      0.484080000000     0.809800000000     0.276390000000     0.0140418  
C309     C      0.507280000000     0.828570000000     0.270570000000     0.0141068  
C310     C      0.511820000000     0.848140000000     0.249160000000    -0.0647066  
C311     C      0.491990000000     0.865040000000     0.207490000000    -0.0207079  
C312     C      0.464200000000     0.809350000000     0.260430000000    -0.0646872  
C313     C      0.491890000000     0.847970000000     0.233950000000     0.0143843  
C314     C      0.468740000000     0.828980000000     0.239130000000     0.0139637  
C315     C      0.510260000000     0.791220000000     0.943010000000    -0.0206357  
C316     C      0.448770000000     0.823140000000     0.998220000000    -0.0208059  
C317     C      0.480910000000     0.828170000000     0.037790000000    -0.0204198  
C318     C      0.480950000000     0.815890000000     0.004470000000     0.0142524  
C319     C      0.462770000000     0.813140000000     0.981670000000     0.0134228  
C320     C      0.460200000000     0.803360000000     0.947340000000    -0.0644795  
C321     C      0.478960000000     0.786910000000     0.902250000000    -0.0204966  
C322     C      0.497320000000     0.808790000000     0.994560000000    -0.0654625  
C323     C      0.476600000000     0.796190000000     0.937420000000     0.013294   
C324     C      0.494550000000     0.798720000000     0.960530000000     0.0142152  
C325     C      0.471690000000     0.945080000000     0.032030000000    -0.0203815  
C326     C      0.536060000000     0.045850000000     0.039840000000    -0.0203345  
C327     C      0.508490000000     0.032590000000     0.989380000000    -0.0206199  
C328     C      0.504590000000     0.011900000000     0.011460000000     0.0138815  
C329     C      0.520240000000     0.019530000000     0.040330000000     0.014287   
C330     C      0.519850000000     0.003410000000     0.065600000000    -0.0651472  
C331     C      0.498660000000     0.958720000000     0.083210000000    -0.0204651  
C332     C      0.487850000000     0.987610000000     0.006030000000    -0.0645272  
C333     C      0.503060000000     0.979180000000     0.060270000000     0.0143366  
C334     C      0.487590000000     0.971450000000     0.031190000000     0.0135892  
C335     C      0.164010000000     0.521010000000     0.132780000000    -0.0207252  
C336     C      0.161270000000     0.459960000000     0.244250000000    -0.0200907  
C337     C      0.199090000000     0.481040000000     0.211930000000    -0.0203982  
C338     C      0.180640000000     0.484920000000     0.194650000000     0.0139077  
C339     C      0.159010000000     0.472740000000     0.212990000000     0.0140027  
C340     C      0.139490000000     0.475560000000     0.204250000000    -0.0647076  
C341     C      0.125990000000     0.499140000000     0.164420000000    -0.0202424  
C342     C      0.183970000000     0.500790000000     0.166810000000    -0.064541   
C343     C      0.142660000000     0.491030000000     0.175960000000     0.0139896  
C344     C      0.164350000000     0.503420000000     0.157820000000     0.0142192  
C345     C      0.173430000000     0.142290000000     0.616230000000    -0.0205433  
C346     C      0.178210000000     0.202570000000     0.502140000000    -0.0200723  
C347     C      0.140510000000     0.183250000000     0.534950000000    -0.0204309  
C348     C      0.158490000000     0.178870000000     0.552680000000     0.0139075  
C349     C      0.180070000000     0.190050000000     0.534080000000     0.013973   
C350     C      0.199090000000     0.186520000000     0.543240000000    -0.064682   
C351     C      0.211460000000     0.162550000000     0.584330000000    -0.0201851  
C352     C      0.154680000000     0.163270000000     0.581160000000    -0.0645768  
C353     C      0.195460000000     0.171350000000     0.572190000000     0.0140169  
C354     C      0.173790000000     0.159910000000     0.590530000000     0.0142119  
C355     C      0.173480000000     0.370470000000     0.332820000000    -0.0205141  
C356     C      0.165380000000     0.292160000000     0.413860000000    -0.0204511  
C357     C      0.138790000000     0.281170000000     0.362410000000    -0.0201998  
C358     C      0.153790000000     0.307520000000     0.365560000000     0.0141247  
C359     C      0.168960000000     0.313800000000     0.394900000000     0.01418    
C360     C      0.184990000000     0.337770000000     0.403540000000    -0.0648759  
C361     C      0.200110000000     0.381460000000     0.384240000000    -0.0204618  
C362     C      0.153790000000     0.324860000000     0.343250000000    -0.0648017  
C363     C      0.184980000000     0.355110000000     0.381240000000     0.0142248  
C364     C      0.169800000000     0.348840000000     0.351910000000     0.0141138  
C365     C      0.156950000000     0.691930000000     0.743720000000    -0.0201633  
C366     C      0.162580000000     0.635740000000     0.631360000000    -0.0206044  
C367     C      0.124310000000     0.617920000000     0.662590000000    -0.0203581  
C368     C      0.140260000000     0.642890000000     0.674570000000     0.0140236  
C369     C      0.162080000000     0.653140000000     0.656650000000     0.0141436  
C370     C      0.181150000000     0.675800000000     0.666030000000    -0.064594   
C371     C      0.194940000000     0.710360000000     0.711660000000    -0.0204422  
C372     C      0.136420000000     0.654570000000     0.703080000000    -0.0647072  
C373     C      0.177120000000     0.687710000000     0.694070000000     0.0139023  
C374     C      0.155390000000     0.677300000000     0.712240000000     0.0139446  
C375     C      0.208830000000     0.515700000000     0.407470000000    -0.0204168  
C376     C      0.166560000000     0.512620000000     0.542870000000    -0.0205428  
C377     C      0.172450000000     0.545280000000     0.504250000000    -0.0205871  
C378     C      0.182220000000     0.531240000000     0.487250000000     0.0134893  
C379     C      0.178970000000     0.512750000000     0.509500000000     0.0141776  
C380     C      0.185810000000     0.496320000000     0.499100000000    -0.0653059  
C381     C      0.203570000000     0.483790000000     0.447230000000    -0.0205396  
C382     C      0.192310000000     0.534120000000     0.453030000000    -0.0643984  
C383     C      0.196150000000     0.499380000000     0.465170000000     0.0141958  
C384     C      0.199220000000     0.517680000000     0.442630000000     0.0133163  
C385     C      0.834720000000     0.295090000000     0.341950000000    -0.0201646  
C386     C      0.831680000000     0.351820000000     0.455850000000    -0.0207238  
C387     C      0.869930000000     0.368430000000     0.424830000000    -0.0204788  
C388     C      0.853150000000     0.343800000000     0.412260000000     0.0140768  
C389     C      0.831310000000     0.334250000000     0.429990000000     0.0141302  
C390     C      0.811590000000     0.312150000000     0.419970000000    -0.064495   
C391     C      0.796560000000     0.277990000000     0.373360000000    -0.0204191  
C392     C      0.856420000000     0.331910000000     0.383470000000    -0.064729   
C393     C      0.815000000000     0.300050000000     0.391570000000     0.013957   
C394     C      0.836810000000     0.309720000000     0.373730000000     0.0141142  
C395     C      0.962570000000     0.484190000000     0.492670000000    -0.0206247  
C396     C      0.035210000000     0.499030000000     0.593720000000    -0.0201389  
C397     C      0.049960000000     0.518510000000     0.536170000000    -0.0205183  
C398     C      0.023300000000     0.504800000000     0.536680000000     0.0144637  
C399     C      0.014880000000     0.493680000000     0.569480000000     0.0130649  
C400     C      0.990200000000     0.479920000000     0.576770000000    -0.0638026  
C401     C      0.947750000000     0.464610000000     0.550130000000    -0.0200106  
C402     C      0.007530000000     0.502820000000     0.509350000000    -0.0659272  
C403     C      0.974430000000     0.477900000000     0.549410000000     0.0133658  
C404     C      0.982860000000     0.489050000000     0.516630000000     0.0151327  
C405     C      0.519700000000     0.302580000000     0.286450000000    -0.0204576  
C406     C      0.509690000000     0.367730000000     0.376990000000    -0.0205375  
C407     C      0.549870000000     0.373370000000     0.373820000000    -0.0205602  
C408     C      0.533600000000     0.354680000000     0.348260000000     0.0139547  
C409     C      0.510600000000     0.351260000000     0.350290000000     0.0138533  
C410     C      0.491350000000     0.332700000000     0.331590000000    -0.0646694  
C411     C      0.479180000000     0.295830000000     0.291250000000    -0.0206521  
C412     C      0.538720000000     0.340060000000     0.326950000000    -0.0649083  
C413     C      0.496500000000     0.318120000000     0.310130000000     0.0139873  
C414     C      0.519600000000     0.321850000000     0.307630000000     0.0142928  
C415     C      0.549620000000     0.180960000000     0.053670000000    -0.0208274  
C416     C      0.508120000000     0.179610000000     0.189150000000    -0.0204583  
C417     C      0.512850000000     0.211130000000     0.148940000000    -0.0204451  
C418     C      0.522940000000     0.197180000000     0.132640000000     0.0134124  
C419     C      0.520280000000     0.179290000000     0.155720000000     0.0141211  
C420     C      0.527440000000     0.162990000000     0.146040000000    -0.0652847  
C421     C      0.545020000000     0.149860000000     0.094650000000    -0.0207786  
C422     C      0.532860000000     0.199640000000     0.098370000000    -0.0644146  
C423     C      0.537550000000     0.165600000000     0.112010000000     0.0141399  
C424     C      0.540170000000     0.183380000000     0.088730000000     0.013405   
C425     C      0.172630000000     0.025090000000     0.115470000000    -0.0207639  
C426     C      0.174150000000     0.966240000000     0.003810000000    -0.0200234  
C427     C      0.136390000000     0.949730000000     0.036180000000    -0.0203688  
C428     C      0.155120000000     0.972030000000     0.053550000000     0.0138826  
C429     C      0.176710000000     0.981330000000     0.035200000000     0.0140036  
C430     C      0.196490000000     0.003640000000     0.044000000000    -0.0646714  
C431     C      0.210600000000     0.040910000000     0.083870000000    -0.0204587  
C432     C      0.152070000000     0.984720000000     0.081440000000    -0.0645562  
C433     C      0.193610000000     0.016080000000     0.072350000000     0.0140867  
C434     C      0.171950000000     0.006960000000     0.090470000000     0.0141577  
C435     C      0.168110000000     0.117880000000     0.240220000000    -0.0206447  
C436     C      0.139020000000     0.180710000000     0.298330000000    -0.020423   
C437     C      0.131810000000     0.147590000000     0.336910000000    -0.0206374  
C438     C      0.141980000000     0.145980000000     0.302060000000     0.0134919  
C439     C      0.146160000000     0.164960000000     0.280190000000     0.0140656  
C440     C      0.157060000000     0.168320000000     0.246640000000    -0.0651646  
C441     C      0.175890000000     0.151650000000     0.202730000000    -0.0203388  
C442     C      0.148300000000     0.129160000000     0.291340000000    -0.0645264  
C443     C      0.163320000000     0.151520000000     0.235930000000     0.0140811  
C444     C      0.158970000000     0.132380000000     0.257520000000     0.0136507  
C445     C      0.304080000000     0.157910000000     0.144230000000    -0.0204399  
C446     C      0.377760000000     0.176510000000     0.245580000000    -0.0202333  
C447     C      0.391790000000     0.190210000000     0.185060000000    -0.0201954  
C448     C      0.365220000000     0.178670000000     0.187090000000     0.0139413  
C449     C      0.357240000000     0.170800000000     0.221590000000     0.0140981  
C450     C      0.332750000000     0.159120000000     0.230350000000    -0.0648624  
C451     C      0.290090000000     0.143790000000     0.204620000000    -0.0202675  
C452     C      0.349160000000     0.175420000000     0.159460000000    -0.0647538  
C453     C      0.316690000000     0.155840000000     0.202710000000     0.013897   
C454     C      0.324660000000     0.163820000000     0.168250000000     0.0140625  
C455     C      0.800110000000     0.513780000000     0.873170000000    -0.0203986  
C456     C      0.871360000000     0.494720000000     0.926550000000    -0.0201571  
C457     C      0.832130000000     0.472090000000     0.954680000000    -0.0205536  
C458     C      0.832740000000     0.490170000000     0.929700000000     0.0141978  
C459     C      0.855100000000     0.502980000000     0.913520000000     0.013871   
C460     C      0.859340000000     0.519060000000     0.885600000000    -0.0646228  
C461     C      0.839080000000     0.535620000000     0.844060000000    -0.0202182  
C462     C      0.813480000000     0.492980000000     0.919120000000    -0.0646476  
C463     C      0.840150000000     0.522020000000     0.875230000000     0.0138193  
C464     C      0.817860000000     0.509440000000     0.891700000000     0.0138651  
C465     C      0.826730000000     0.446950000000     0.582890000000    -0.0206669  
C466     C      0.806100000000     0.515930000000     0.641400000000    -0.0205141  
C467     C      0.791630000000     0.479880000000     0.676990000000    -0.0204642  
C468     C      0.803260000000     0.478230000000     0.643570000000     0.0131109  
C469     C      0.811510000000     0.498870000000     0.623450000000     0.0144376  
C470     C      0.824180000000     0.502330000000     0.591520000000    -0.0654689  
C471     C      0.841430000000     0.483600000000     0.548680000000    -0.0204039  
C472     C      0.807120000000     0.459750000000     0.632540000000    -0.0641753  
C473     C      0.827990000000     0.483910000000     0.580530000000     0.0143993  
C474     C      0.819660000000     0.463120000000     0.600290000000     0.0133026  
C475     C      0.807240000000     0.839190000000     0.457350000000    -0.0204066  
C476     C      0.880460000000     0.830540000000     0.528230000000    -0.0207303  
C477     C      0.839950000000     0.796810000000     0.535700000000    -0.0206294  
C478     C      0.840200000000     0.814090000000     0.509510000000     0.0143398  
C479     C      0.863360000000     0.833220000000     0.504940000000     0.0139324  
C480     C      0.868000000000     0.853020000000     0.484000000000    -0.0646123  
C481     C      0.847900000000     0.872130000000     0.447560000000    -0.0202687  
C482     C      0.820360000000     0.813960000000     0.494010000000    -0.0648203  
C483     C      0.848210000000     0.852610000000     0.467770000000     0.0139281  
C484     C      0.825010000000     0.833700000000     0.472960000000     0.0142278  
C485     C      0.847800000000     0.829160000000     0.707320000000    -0.0202166  
C486     C      0.851120000000     0.872210000000     0.841830000000    -0.0206278  
C487     C      0.818210000000     0.865560000000     0.802680000000    -0.0205121  
C488     C      0.834190000000     0.858590000000     0.784650000000     0.0141859  
C489     C      0.853050000000     0.862460000000     0.806840000000     0.0134316  
C490     C      0.869960000000     0.856100000000     0.796310000000    -0.0644356  
C491     C      0.881460000000     0.836490000000     0.745260000000    -0.0205797  
C492     C      0.830990000000     0.847940000000     0.751000000000    -0.0652878  
C493     C      0.866940000000     0.845710000000     0.762350000000     0.0135387  
C494     C      0.847870000000     0.841650000000     0.740480000000     0.0140754  
C495     C      0.826220000000     0.627150000000     0.748090000000    -0.0203801  
C496     C      0.835410000000     0.701210000000     0.655290000000    -0.0204863  
C497     C      0.859440000000     0.714940000000     0.709560000000    -0.0204061  
C498     C      0.845020000000     0.688440000000     0.708670000000     0.0137379  
C499     C      0.831250000000     0.680650000000     0.677790000000     0.0143581  
C500     C      0.816250000000     0.656290000000     0.670460000000    -0.0650003  
C501     C      0.801730000000     0.613690000000     0.694250000000    -0.0200332  
C502     C      0.844710000000     0.672260000000     0.733820000000    -0.0646554  
C503     C      0.815820000000     0.640130000000     0.695680000000     0.0143462  
C504     C      0.829730000000     0.647860000000     0.726440000000     0.0140194  
C505     C      0.030300000000     0.200880000000     0.003010000000    -0.019758   
C506     C      0.972410000000     0.142100000000     0.117600000000    -0.0206461  
C507     C      0.955490000000     0.162080000000     0.083920000000    -0.0202015  
C508     C      0.980530000000     0.170570000000     0.072370000000     0.0136713  
C509     C      0.990260000000     0.159250000000     0.091670000000     0.0149364  
C510     C      0.012810000000     0.162330000000     0.083000000000    -0.0654058  
C511     C      0.047790000000     0.181670000000     0.037310000000    -0.0205383  
C512     C      0.992670000000     0.185360000000     0.043190000000    -0.063818   
C513     C      0.025170000000     0.177510000000     0.054240000000     0.0143663  
C514     C      0.015290000000     0.188620000000     0.034760000000     0.0131523  
C515     C      0.173330000000     0.119350000000     0.023340000000    -0.0207911  
C516     C      0.160520000000     0.191960000000     0.960710000000    -0.0202648  
C517     C      0.128580000000     0.151320000000     0.948460000000    -0.0200224  
C518     C      0.148750000000     0.151350000000     0.967610000000     0.0138183  
C519     C      0.167090000000     0.174560000000     0.974200000000     0.0142625  
C520     C      0.187270000000     0.179360000000     0.994590000000    -0.0650313  
C521     C      0.206050000000     0.159960000000     0.033210000000    -0.0206723  
C522     C      0.149390000000     0.131680000000     0.981740000000    -0.0646618  
C523     C      0.188180000000     0.159690000000     0.007970000000     0.0144873  
C524     C      0.169630000000     0.136490000000     0.002030000000     0.0139256  
C525     C      0.286440000000     0.478900000000     0.706770000000    -0.0204322  
C526     C      0.378070000000     0.498520000000     0.656820000000    -0.0202774  
C527     C      0.360980000000     0.519000000000     0.624900000000    -0.0204414  
C528     C      0.343330000000     0.501570000000     0.650780000000     0.0141281  
C529     C      0.353170000000     0.489990000000     0.669090000000     0.0140951  
C530     C      0.341300000000     0.474960000000     0.698180000000    -0.0647159  
C531     C      0.304170000000     0.459290000000     0.739470000000    -0.020225   
C532     C      0.320920000000     0.498510000000     0.660330000000    -0.0644612  
C533     C      0.318820000000     0.471730000000     0.707510000000     0.0141019  
C534     C      0.308810000000     0.483070000000     0.688960000000     0.0139043  
C535     C      0.164110000000     0.541830000000     0.721560000000    -0.0205813  
C536     C      0.175440000000     0.468800000000     0.785950000000    -0.0201783  
C537     C      0.207520000000     0.509330000000     0.798390000000    -0.0199799  
C538     C      0.187580000000     0.509490000000     0.778830000000     0.0138779  
C539     C      0.169170000000     0.486340000000     0.772120000000     0.0141866  
C540     C      0.149260000000     0.481700000000     0.751150000000    -0.0647854  
C541     C      0.131250000000     0.501330000000     0.711430000000    -0.0205817  
C542     C      0.187310000000     0.529240000000     0.764280000000    -0.0645694  
C543     C      0.148700000000     0.501460000000     0.737350000000     0.0144064  
C544     C      0.167340000000     0.524600000000     0.743440000000     0.0138733  
C545     C      0.186610000000     0.380230000000     0.881620000000    -0.0202749  
C546     C      0.149700000000     0.280210000000     0.864370000000    -0.0202814  
C547     C      0.133980000000     0.291130000000     0.915510000000    -0.0204657  
C548     C      0.151520000000     0.312730000000     0.895450000000     0.0141421  
C549     C      0.160480000000     0.306490000000     0.866290000000     0.0141438  
C550     C      0.177380000000     0.323800000000     0.843050000000    -0.0648576  
C551     C      0.202330000000     0.369300000000     0.830490000000    -0.0204656  
C552     C      0.158960000000     0.336640000000     0.902990000000    -0.0648855  
C553     C      0.184820000000     0.347710000000     0.850590000000     0.0141454  
C554     C      0.175860000000     0.353940000000     0.879750000000     0.0141407  
C555     C      0.722870000000     0.198440000000     0.871260000000    -0.0204455  
C556     C      0.629920000000     0.126630000000     0.917980000000    -0.0200374  
C557     C      0.646920000000     0.164260000000     0.950210000000    -0.0202685  
C558     C      0.664820000000     0.164470000000     0.924940000000     0.0139027  
C559     C      0.655050000000     0.142990000000     0.906550000000     0.0142213  
C560     C      0.667340000000     0.139670000000     0.878340000000    -0.064786   
C561     C      0.705380000000     0.160890000000     0.838770000000    -0.0203053  
C562     C      0.687560000000     0.183770000000     0.916170000000    -0.0644401  
C563     C      0.690160000000     0.158850000000     0.869850000000     0.0141656  
C564     C      0.700060000000     0.180300000000     0.888330000000     0.0138119  
C565     C      0.800620000000     0.308240000000     0.778750000000    -0.0204176  
C566     C      0.870820000000     0.373830000000     0.876510000000    -0.0204589  
C567     C      0.838240000000     0.381090000000     0.863000000000    -0.0203974  
C568     C      0.836730000000     0.361760000000     0.839970000000     0.0139148  
C569     C      0.855230000000     0.357500000000     0.847900000000     0.0145051  
C570     C      0.855960000000     0.338050000000     0.833150000000    -0.0648757  
C571     C      0.832480000000     0.300270000000     0.794050000000    -0.0204177  
C572     C      0.818180000000     0.347010000000     0.816380000000    -0.0645549  
C573     C      0.837510000000     0.323410000000     0.809390000000     0.0143127  
C574     C      0.819220000000     0.327870000000     0.800960000000     0.0139952  
C575     C      0.030910000000     0.149720000000     0.444820000000    -0.0201931  
C576     C      0.962180000000     0.157200000000     0.531230000000    -0.0203931  
C577     C      0.955560000000     0.117070000000     0.524680000000    -0.020711   
C578     C      0.975620000000     0.134060000000     0.501390000000     0.0139601  
C579     C      0.979540000000     0.157000000000     0.505420000000     0.0140868  
C580     C      0.999430000000     0.176740000000     0.489820000000    -0.0635897  
C581     C      0.038370000000     0.190000000000     0.453670000000    -0.0201697  
C582     C      0.991120000000     0.129560000000     0.480920000000    -0.0641194  
C583     C      0.014860000000     0.172230000000     0.469240000000     0.0135237  
C584     C      0.010690000000     0.149240000000     0.464580000000     0.013546   
C585     C      0.796270000000     0.967090000000     0.501790000000    -0.0202299  
C586     C      0.857300000000     0.024500000000     0.614850000000    -0.0205736  
C587     C      0.837720000000     0.041940000000     0.581320000000    -0.0203043  
C588     C      0.828330000000     0.016810000000     0.570300000000     0.0140717  
C589     C      0.839410000000     0.006790000000     0.589510000000     0.0141723  
C590     C      0.835580000000     0.984070000000     0.581130000000    -0.0645153  
C591     C      0.815080000000     0.949120000000     0.535930000000    -0.0204108  
C592     C      0.813030000000     0.004790000000     0.541500000000    -0.0647718  
C593     C      0.819880000000     0.971840000000     0.552750000000     0.0138982  
C594     C      0.809000000000     0.981990000000     0.533370000000     0.0140708  
C595     C      0.958450000000     0.115700000000     0.741640000000    -0.0203997  
C596     C      0.051220000000     0.178040000000     0.801200000000    -0.0206343  
C597     C      0.023860000000     0.145520000000     0.840080000000    -0.0201958  
C598     C      0.012600000000     0.143610000000     0.804630000000     0.0125293  
C599     C      0.028230000000     0.162240000000     0.782590000000     0.0145994  
C600     C      0.021270000000     0.165430000000     0.748560000000    -0.0661633  
C601     C      0.985910000000     0.148940000000     0.703890000000    -0.0207183  
C602     C      0.989150000000     0.126940000000     0.793590000000    -0.0635609  
C603     C      0.997910000000     0.148780000000     0.737520000000     0.015026   
C604     C      0.982280000000     0.129950000000     0.759260000000     0.0130976  
C605     C      0.871440000000     0.163370000000     0.649880000000    -0.0205561  
C606     C      0.810400000000     0.176920000000     0.745700000000    -0.0205012  
C607     C      0.820690000000     0.200100000000     0.690760000000    -0.020281   
C608     C      0.832470000000     0.185570000000     0.691920000000     0.0142209  
C609     C      0.826690000000     0.172410000000     0.723300000000     0.0140222  
C610     C      0.835530000000     0.157080000000     0.730510000000    -0.0647077  
C611     C      0.861750000000     0.140630000000     0.705200000000    -0.020205   
C612     C      0.847240000000     0.184000000000     0.665880000000    -0.0649505  
C613     C      0.850430000000     0.155620000000     0.704560000000     0.0137006  
C614     C      0.856050000000     0.168650000000     0.673070000000     0.0142984  
C615     C      0.380140000000     0.833610000000     0.725260000000    -0.0206871  
C616     C      0.295190000000     0.821780000000     0.790760000000    -0.020296   
C617     C      0.304080000000     0.790390000000     0.803630000000    -0.0201681  
C618     C      0.324140000000     0.810140000000     0.783480000000     0.0138994  
C619     C      0.319160000000     0.828170000000     0.776530000000     0.0142278  
C620     C      0.334310000000     0.847820000000     0.755060000000    -0.064834   
C621     C      0.372070000000     0.865810000000     0.714680000000    -0.0206593  
C622     C      0.344320000000     0.810560000000     0.768680000000    -0.0646025  
C623     C      0.354790000000     0.848540000000     0.740990000000     0.014396   
C624     C      0.359540000000     0.830280000000     0.747330000000     0.0138619  
C625     C      0.474310000000     0.832890000000     0.631010000000    -0.0206745  
C626     C      0.536440000000     0.835330000000     0.741030000000    -0.0201254  
C627     C      0.515130000000     0.797880000000     0.708400000000    -0.0203656  
C628     C      0.511160000000     0.816280000000     0.691520000000     0.013918   
C629     C      0.523470000000     0.837700000000     0.710030000000     0.0140516  
C630     C      0.520540000000     0.857110000000     0.701760000000    -0.0648012  
C631     C      0.496470000000     0.870580000000     0.662850000000    -0.0203296  
C632     C      0.495000000000     0.813040000000     0.664010000000    -0.0645477  
C633     C      0.504790000000     0.854030000000     0.673770000000     0.0140893  
C634     C      0.492240000000     0.832540000000     0.655500000000     0.014182   
C635     C      0.621710000000     0.125620000000     0.377370000000    -0.0206633  
C636     C      0.686690000000     0.198060000000     0.281800000000    -0.0201785  
C637     C      0.696380000000     0.167450000000     0.296410000000    -0.0204392  
C638     C      0.672640000000     0.161220000000     0.311440000000     0.0142337  
C639     C      0.667180000000     0.178790000000     0.303380000000     0.0138627  
C640     C      0.647220000000     0.178590000000     0.318590000000    -0.064485   
C641     C      0.612670000000     0.156880000000     0.364400000000    -0.0207009  
C642     C      0.658260000000     0.142340000000     0.334650000000    -0.0648011  
C643     C      0.632730000000     0.159600000000     0.341600000000     0.0137817  
C644     C      0.638010000000     0.141850000000     0.349200000000     0.0143264  
C645     C      0.463810000000     0.164090000000     0.356770000000    -0.0206114  
C646     C      0.530630000000     0.169920000000     0.461390000000    -0.0204818  
C647     C      0.501560000000     0.129810000000     0.441600000000    -0.0205898  
C648     C      0.495530000000     0.147360000000     0.426940000000     0.0140815  
C649     C      0.512170000000     0.170280000000     0.438150000000     0.0142563  
C650     C      0.512370000000     0.190350000000     0.423940000000    -0.0646423  
C651     C      0.493140000000     0.204240000000     0.376110000000    -0.0207772  
C652     C      0.478140000000     0.143270000000     0.401050000000    -0.0646224  
C653     C      0.494770000000     0.186240000000     0.398420000000     0.0140617  
C654     C      0.478060000000     0.163310000000     0.387330000000     0.0141728  
C655     C      0.624810000000     0.168980000000     0.586010000000    -0.0206156  
C656     C      0.719510000000     0.200270000000     0.637730000000    -0.0204879  
C657     C      0.693710000000     0.205900000000     0.679070000000    -0.0203948  
C658     C      0.681100000000     0.195890000000     0.644620000000     0.013493   
C659     C      0.695840000000     0.192630000000     0.621160000000     0.0141578  
C660     C      0.687630000000     0.182090000000     0.587550000000    -0.0652599  
C661     C      0.650730000000     0.162870000000     0.545550000000    -0.02043    
C662     C      0.657320000000     0.188950000000     0.635580000000    -0.0645132  
C663     C      0.663930000000     0.175210000000     0.578490000000     0.0140901  
C664     C      0.649170000000     0.178620000000     0.601730000000     0.0136799  
C665     C      0.471040000000     0.962130000000     0.599460000000    -0.0204992  
C666     C      0.524610000000     0.034030000000     0.495050000000    -0.0202953  
C667     C      0.524610000000     0.048850000000     0.554790000000    -0.02016    
C668     C      0.510210000000     0.022370000000     0.553970000000     0.0138673  
C669     C      0.510250000000     0.013920000000     0.519910000000     0.0140726  
C670     C      0.497890000000     0.989410000000     0.512260000000    -0.0648628  
C671     C      0.471310000000     0.947330000000     0.539800000000    -0.0202227  
C672     C      0.497740000000     0.006780000000     0.582250000000    -0.0648109  
C673     C      0.485440000000     0.973820000000     0.540550000000     0.0138436  
C674     C      0.485330000000     0.982260000000     0.574590000000     0.0140691  
C675     C      0.973840000000     0.828670000000     0.617870000000    -0.0208125  
C676     C      0.031040000000     0.825250000000     0.504640000000    -0.0198149  
C677     C      0.049130000000     0.862620000000     0.537680000000    -0.0205944  
C678     C      0.026440000000     0.844500000000     0.555040000000     0.0144112  
C679     C      0.016210000000     0.823130000000     0.536280000000     0.013151   
C680     C      0.993410000000     0.804010000000     0.545020000000    -0.0637747  
C681     C      0.956330000000     0.791100000000     0.585440000000    -0.0200155  
C682     C      0.014250000000     0.847970000000     0.583350000000    -0.0655671  
C683     C      0.981450000000     0.807310000000     0.573760000000     0.013592   
C684     C      0.991520000000     0.828730000000     0.592330000000     0.0151036  
C685     C      0.161120000000     0.963670000000     0.459320000000    -0.0201879  
C686     C      0.172440000000     0.047810000000     0.524800000000    -0.0207068  
C687     C      0.205010000000     0.040050000000     0.535410000000    -0.0206164  
C688     C      0.187820000000     0.022970000000     0.508840000000     0.0144068  
C689     C      0.169360000000     0.027550000000     0.502490000000     0.0139833  
C690     C      0.149550000000     0.012340000000     0.481180000000    -0.0646108  
C691     C      0.129400000000     0.972320000000     0.446420000000    -0.0200385  
C692     C      0.187220000000     0.002650000000     0.494850000000    -0.0647961  
C693     C      0.149260000000     0.992340000000     0.466430000000     0.0138888  
C694     C      0.167480000000     0.987510000000     0.473410000000     0.0142178  
C695     C      0.357870000000     0.833030000000     0.127700000000    -0.0203979  
C696     C      0.302760000000     0.836920000000     0.243690000000    -0.0201057  
C697     C      0.283840000000     0.799620000000     0.210440000000    -0.0203506  
C698     C      0.306380000000     0.817600000000     0.192590000000     0.0139142  
C699     C      0.317080000000     0.838940000000     0.211470000000     0.0140229  
C700     C      0.339840000000     0.857930000000     0.202160000000    -0.064726   
C701     C      0.376200000000     0.870580000000     0.160260000000    -0.0202638  
C702     C      0.318020000000     0.814030000000     0.163610000000    -0.0645497  
C703     C      0.351240000000     0.854530000000     0.172750000000     0.0141045  
C704     C      0.340700000000     0.833130000000     0.154080000000     0.0141485  
C705     C      0.163590000000     0.614650000000     0.224030000000    -0.0207499  
C706     C      0.173440000000     0.697780000000     0.291140000000    -0.0204433  
C707     C      0.206180000000     0.690320000000     0.302220000000    -0.0203246  
C708     C      0.186360000000     0.670020000000     0.282580000000     0.0140107  
C709     C      0.167560000000     0.674170000000     0.276640000000     0.0141707  
C710     C      0.147650000000     0.658640000000     0.255750000000    -0.0647515  
C711     C      0.130050000000     0.621180000000     0.215280000000    -0.0205967  
C712     C      0.186480000000     0.650370000000     0.267280000000    -0.0647373  
C713     C      0.147490000000     0.638680000000     0.241200000000     0.0142807  
C714     C      0.166510000000     0.634790000000     0.246510000000     0.0139524  
C715     C      0.283280000000     0.796940000000     0.447730000000    -0.0204943  
C716     C      0.375570000000     0.826070000000     0.507470000000    -0.0206326  
C717     C      0.348840000000     0.832960000000     0.544870000000    -0.0203211  
C718     C      0.336590000000     0.820670000000     0.511360000000     0.0140653  
C719     C      0.351820000000     0.816840000000     0.489840000000     0.0137191  
C720     C      0.344700000000     0.806660000000     0.455690000000    -0.0645501  
C721     C      0.309960000000     0.790620000000     0.409300000000    -0.0204673  
C722     C      0.313400000000     0.814370000000     0.500230000000    -0.0651565  
C723     C      0.321420000000     0.800290000000     0.444560000000     0.0134997  
C724     C      0.306190000000     0.803960000000     0.466350000000     0.0141137  
C725     C      0.200020000000     0.825040000000     0.331420000000    -0.0204629  
C726     C      0.132290000000     0.836140000000     0.415230000000    -0.0204588  
C727     C      0.148180000000     0.862330000000     0.363520000000    -0.0202009  
C728     C      0.158630000000     0.846630000000     0.365920000000     0.0140186  
C729     C      0.149560000000     0.831680000000     0.395400000000     0.0141957  
C730     C      0.156750000000     0.815160000000     0.403530000000    -0.0649427  
C731     C      0.184070000000     0.798820000000     0.383100000000    -0.0203187  
C732     C      0.175410000000     0.845890000000     0.342930000000    -0.0647653  
C733     C      0.173510000000     0.814420000000     0.380530000000     0.0142138  
C734     C      0.182600000000     0.829360000000     0.351060000000     0.014099   
C735     C      0.700050000000     0.538470000000     0.346980000000    -0.0204089  
C736     C      0.643000000000     0.477600000000     0.460610000000    -0.0207809  
C737     C      0.623750000000     0.493840000000     0.423590000000    -0.0203949  
C738     C      0.649450000000     0.504740000000     0.413960000000     0.0142123  
C739     C      0.660510000000     0.495460000000     0.434940000000     0.0139645  
C740     C      0.684110000000     0.500860000000     0.427920000000    -0.0643533  
C741     C      0.719690000000     0.522420000000     0.383480000000    -0.02055    
C742     C      0.661290000000     0.519860000000     0.384990000000    -0.0649446  
C743     C      0.696110000000     0.516320000000     0.399210000000     0.0136478  
C744     C      0.684960000000     0.525550000000     0.378350000000     0.0142141  
C745     C      0.791610000000     0.483110000000     0.293060000000    -0.0202567  
C746     C      0.867370000000     0.486070000000     0.375490000000    -0.0207751  
C747     C      0.831480000000     0.446900000000     0.369900000000    -0.0206408  
C748     C      0.829580000000     0.464560000000     0.347080000000     0.0138323  
C749     C      0.849950000000     0.486970000000     0.350600000000     0.0143809  
C750     C      0.851160000000     0.507300000000     0.335530000000    -0.0648594  
C751     C      0.826770000000     0.522550000000     0.301170000000    -0.0204848  
C752     C      0.809530000000     0.461170000000     0.327600000000    -0.0646788  
C753     C      0.831150000000     0.503910000000     0.315960000000     0.014242   
C754     C      0.810990000000     0.481420000000     0.311740000000     0.0138792  
C755     C      0.025670000000     0.871340000000     0.947120000000    -0.0199396  
C756     C      0.957220000000     0.796320000000     0.036080000000    -0.0206197  
C757     C      0.950360000000     0.829450000000     0.027160000000    -0.0205715  
C758     C      0.970390000000     0.832230000000     0.004220000000     0.0139063  
C759     C      0.974460000000     0.813450000000     0.009620000000     0.0144786  
C760     C      0.994470000000     0.813590000000     0.994750000000    -0.0643511  
C761     C      0.033460000000     0.839030000000     0.958450000000    -0.020209   
C762     C      0.985820000000     0.851940000000     0.983000000000    -0.0640559  
C763     C      0.009830000000     0.833230000000     0.973430000000     0.0137932  
C764     C      0.005490000000     0.851790000000     0.967370000000     0.0133838  
C765     C      0.834810000000     0.789910000000     0.085940000000    -0.0202028  
C766     C      0.813890000000     0.860760000000     0.038680000000    -0.0204309  
C767     C      0.794820000000     0.823740000000     0.004750000000    -0.0199697  
C768     C      0.807240000000     0.821540000000     0.036630000000     0.013915   
C769     C      0.818280000000     0.842720000000     0.055880000000     0.0140357  
C770     C      0.833770000000     0.846200000000     0.084490000000    -0.0646579  
C771     C      0.854760000000     0.827240000000     0.119050000000    -0.0205299  
C772     C      0.810840000000     0.802590000000     0.045220000000    -0.0646105  
C773     C      0.837200000000     0.827140000000     0.093290000000     0.014249   
C774     C      0.825910000000     0.805870000000     0.074290000000     0.0139812  
C775     C      0.023000000000     0.872640000000     0.342180000000    -0.020116   
C776     C      0.983930000000     0.833460000000     0.205310000000    -0.0207417  
C777     C      0.956740000000     0.838160000000     0.244990000000    -0.0204935  
C778     C      0.980800000000     0.847840000000     0.261830000000     0.0131032  
C779     C      0.996280000000     0.845250000000     0.239010000000     0.0150178  
C780     C      0.019730000000     0.851940000000     0.249270000000    -0.0662915  
C781     C      0.050080000000     0.868470000000     0.301550000000    -0.0206883  
C782     C      0.987940000000     0.857110000000     0.296460000000    -0.063544   
C783     C      0.026950000000     0.861470000000     0.283640000000     0.0146676  
C784     C      0.011490000000     0.863910000000     0.306700000000     0.01249    
C785     C      0.869450000000     0.702420000000     0.159910000000    -0.0205495  
C786     C      0.809660000000     0.628970000000     0.258700000000    -0.0206805  
C787     C      0.820650000000     0.615490000000     0.205080000000    -0.0201997  
C788     C      0.832030000000     0.641850000000     0.205090000000     0.0143156  
C789     C      0.825880000000     0.649590000000     0.235710000000     0.0140083  
C790     C      0.834060000000     0.673870000000     0.241490000000    -0.0646759  
C791     C      0.859250000000     0.716230000000     0.213940000000    -0.0203177  
C792     C      0.846490000000     0.657860000000     0.178410000000    -0.0650384  
C793     C      0.848700000000     0.689930000000     0.214910000000     0.0136353  
C794     C      0.854640000000     0.682100000000     0.184170000000     0.0143614  
C795     C      0.618370000000     0.458170000000     0.860930000000    -0.0209169  
C796     C      0.704470000000     0.530680000000     0.796540000000    -0.0202994  
C797     C      0.692420000000     0.490180000000     0.778520000000    -0.0204511  
C798     C      0.673420000000     0.490420000000     0.800700000000     0.0139868  
C799     C      0.680250000000     0.513590000000     0.810650000000     0.0142028  
C800     C      0.666630000000     0.518380000000     0.834830000000    -0.0647734  
C801     C      0.629910000000     0.498820000000     0.877230000000    -0.020797   
C802     C      0.652730000000     0.470750000000     0.814890000000    -0.0645452  
C803     C      0.645660000000     0.498760000000     0.848360000000     0.0143115  
C804     C      0.638980000000     0.475560000000     0.838850000000     0.0138349  
C805     C      0.468870000000     0.295790000000     0.860850000000    -0.02051    
C806     C      0.540570000000     0.361950000000     0.956410000000    -0.0203664  
C807     C      0.508800000000     0.370240000000     0.941960000000    -0.0205967  
C808     C      0.503360000000     0.346920000000     0.926730000000     0.0139937  
C809     C      0.521590000000     0.342290000000     0.934790000000     0.0143418  
C810     C      0.522260000000     0.322930000000     0.919540000000    -0.0648425  
C811     C      0.501400000000     0.288370000000     0.874040000000    -0.0203373  
C812     C      0.484620000000     0.332230000000     0.903350000000    -0.0646492  
C813     C      0.503450000000     0.308160000000     0.896400000000     0.0138873  
C814     C      0.485020000000     0.312560000000     0.888690000000     0.0137582  
C815     C      0.654680000000     0.488780000000     0.048980000000    -0.0203499  
C816     C      0.693130000000     0.484890000000     0.184620000000    -0.0205515  
C817     C      0.719750000000     0.518600000000     0.146970000000    -0.0204514  
C818     C      0.696930000000     0.502630000000     0.128070000000     0.0140729  
C819     C      0.681720000000     0.483360000000     0.149450000000     0.0136484  
C820     C      0.658550000000     0.466260000000     0.137990000000    -0.0646613  
C821     C      0.627940000000     0.454700000000     0.085940000000    -0.0205297  
C822     C      0.689840000000     0.505980000000     0.094210000000    -0.0651879  
C823     C      0.651520000000     0.469490000000     0.103920000000     0.0137534  
C824     C      0.666750000000     0.488860000000     0.082720000000     0.0140239  
C825     C      0.384690000000     0.543480000000     0.220540000000    -0.0205932  
C826     C      0.299840000000     0.470140000000     0.286840000000    -0.0202274  
C827     C      0.309500000000     0.510610000000     0.300760000000    -0.0202194  
C828     C      0.329170000000     0.510850000000     0.279780000000     0.0139236  
C829     C      0.323750000000     0.487730000000     0.272210000000     0.0142292  
C830     C      0.338450000000     0.483170000000     0.249950000000    -0.0648434  
C831     C      0.375810000000     0.503010000000     0.208760000000    -0.0205128  
C832     C      0.349380000000     0.530670000000     0.264890000000    -0.0645554  
C833     C      0.358950000000     0.503000000000     0.235760000000     0.0144106  
C834     C      0.364160000000     0.526120000000     0.242760000000     0.0138611  
C835     C      0.516440000000     0.713760000000     0.206210000000    -0.0203328  
C836     C      0.500050000000     0.623980000000     0.155860000000    -0.0202095  
C837     C      0.477210000000     0.639130000000     0.125540000000    -0.0206926  
C838     C      0.494980000000     0.657360000000     0.150430000000     0.0141841  
C839     C      0.507920000000     0.648620000000     0.167850000000     0.014008   
C840     C      0.523430000000     0.661070000000     0.196260000000    -0.0647179  
C841     C      0.538340000000     0.697890000000     0.237450000000    -0.0201636  
C842     C      0.497140000000     0.679210000000     0.160200000000    -0.0644771  
C843     C      0.525740000000     0.683000000000     0.205800000000     0.0140905  
C844     C      0.513080000000     0.691930000000     0.188100000000     0.013884   
C845     C      0.379080000000     0.546360000000     0.001200000000    -0.0204134  
C846     C      0.285960000000     0.483240000000     0.943380000000    -0.020466   
C847     C      0.313190000000     0.515100000000     0.903450000000    -0.0204048  
C848     C      0.324610000000     0.517530000000     0.938900000000     0.0133826  
C849     C      0.309060000000     0.499280000000     0.961550000000     0.0142388  
C850     C      0.316160000000     0.496650000000     0.995800000000    -0.0654448  
C851     C      0.351760000000     0.513850000000     0.040150000000    -0.0204492  
C852     C      0.348130000000     0.534340000000     0.949470000000    -0.0643993  
C853     C      0.339590000000     0.513450000000     0.006390000000     0.0143628  
C854     C      0.355150000000     0.531880000000     0.983990000000     0.0134399  
C855     C      0.474370000000     0.506630000000     0.093830000000    -0.0204636  
C856     C      0.528220000000     0.488620000000     0.990000000000    -0.0203489  
C857     C      0.529030000000     0.474950000000     0.050260000000    -0.0202032  
C858     C      0.514050000000     0.486270000000     0.048950000000     0.0140426  
C859     C      0.513620000000     0.494120000000     0.014610000000     0.0140374  
C860     C      0.500770000000     0.505630000000     0.006580000000    -0.0646657  
C861     C      0.473830000000     0.520660000000     0.033730000000    -0.0202485  
C862     C      0.501570000000     0.489390000000     0.077130000000    -0.0649393  
C863     C      0.488310000000     0.508770000000     0.034780000000     0.0137501  
C864     C      0.488660000000     0.500830000000     0.069080000000     0.0141916  
H1       H      0.610640000000     0.826370000000     0.380170000000     0.0473248  
H2       H      0.626910000000     0.804420000000     0.301060000000     0.0466327  
H3       H      0.677240000000     0.815880000000     0.317460000000     0.0465382  
H4       H      0.654950000000     0.846000000000     0.425880000000     0.046534   
H5       H      0.707330000000     0.881970000000     0.416390000000     0.0468678  
H6       H      0.721540000000     0.835520000000     0.363190000000     0.0473941  
H7       H      0.608540000000     0.801950000000     0.406220000000     0.0478033  
H8       H      0.624840000000     0.779940000000     0.326900000000     0.04698    
H9       H      0.723620000000     0.859900000000     0.337080000000     0.0480239  
H10      H      0.705320000000     0.857510000000     0.442260000000     0.0464873  
H11      H      0.850060000000     0.985710000000     0.362350000000     0.0467799  
H12      H      0.799820000000     0.944560000000     0.301930000000     0.0466952  
H13      H      0.815710000000     0.967890000000     0.232280000000     0.046316   
H14      H      0.883850000000     0.023050000000     0.312310000000     0.0463363  
H15      H      0.880430000000     0.056540000000     0.261660000000     0.0462166  
H16      H      0.848850000000     0.007080000000     0.181960000000     0.0454673  
H17      H      0.867440000000     0.973560000000     0.343640000000     0.045425   
H18      H      0.819270000000     0.934150000000     0.285520000000     0.0455853  
H19      H      0.829560000000     0.015790000000     0.204050000000     0.046604   
H20      H      0.898970000000     0.047110000000     0.238990000000     0.0465867  
H21      H      0.842030000000     0.140260000000     0.126020000000     0.0480188  
H22      H      0.875930000000     0.154140000000     0.210540000000     0.0459912  
H23      H      0.850600000000     0.171850000000     0.257110000000     0.0463386  
H24      H      0.804030000000     0.152240000000     0.142430000000     0.0467004  
H25      H      0.803390000000     0.195480000000     0.168260000000     0.0476129  
H26      H      0.812900000000     0.184770000000     0.273230000000     0.046468   
H27      H      0.817470000000     0.114210000000     0.146910000000     0.0463461  
H28      H      0.850930000000     0.127990000000     0.230480000000     0.0451928  
H29      H      0.837720000000     0.210280000000     0.251740000000     0.0467254  
H30      H      0.778580000000     0.169900000000     0.189640000000     0.0475234  
H31      H      0.465110000000     0.686370000000     0.396130000000     0.0453571  
H32      H      0.511270000000     0.726990000000     0.456250000000     0.0456126  
H33      H      0.514920000000     0.694100000000     0.511010000000     0.0462685  
H34      H      0.449640000000     0.637350000000     0.428300000000     0.0462725  
H35      H      0.433420000000     0.613250000000     0.501540000000     0.0465196  
H36      H      0.502060000000     0.646730000000     0.540150000000     0.0467399  
H37      H      0.483880000000     0.675280000000     0.379260000000     0.0465658  
H38      H      0.531860000000     0.717560000000     0.441530000000     0.0464151  
H39      H      0.481410000000     0.654360000000     0.560450000000     0.0452738  
H40      H      0.453140000000     0.604710000000     0.480420000000     0.0463614  
H41      H      0.457920000000     0.509030000000     0.528210000000     0.0462844  
H42      H      0.490650000000     0.520480000000     0.613670000000     0.0479463  
H43      H      0.527780000000     0.507350000000     0.597010000000     0.0465626  
H44      H      0.482860000000     0.491310000000     0.481250000000     0.046623   
H45      H      0.494010000000     0.451780000000     0.485040000000     0.0478762  
H46      H      0.552740000000     0.489310000000     0.549130000000     0.0462133  
H47      H      0.483590000000     0.535290000000     0.509740000000     0.0452116  
H48      H      0.515790000000     0.546610000000     0.593920000000     0.046156   
H49      H      0.527180000000     0.463780000000     0.569290000000     0.0460484  
H50      H      0.519590000000     0.477250000000     0.464810000000     0.0478521  
H51      H      0.191740000000     0.800630000000     0.909670000000     0.0478986  
H52      H      0.151760000000     0.777080000000     0.832160000000     0.0466443  
H53      H      0.136960000000     0.813670000000     0.820420000000     0.0464856  
H54      H      0.191750000000     0.845800000000     0.926690000000     0.0465457  
H55      H      0.154280000000     0.858860000000     0.942640000000     0.0466908  
H56      H      0.137040000000     0.858960000000     0.837530000000     0.0476523  
H57      H      0.214500000000     0.824130000000     0.882230000000     0.0476183  
H58      H      0.174430000000     0.800510000000     0.804540000000     0.0465513  
H59      H      0.114240000000     0.835440000000     0.864870000000     0.0474133  
H60      H      0.176980000000     0.882340000000     0.915100000000     0.0467448  
H61      H      0.461630000000     0.277450000000     0.648280000000     0.0464308  
H62      H      0.521370000000     0.286090000000     0.660800000000     0.0464165  
H63      H      0.554030000000     0.335980000000     0.629480000000     0.0463305  
H64      H      0.470870000000     0.322100000000     0.611580000000     0.0464961  
H65      H      0.496550000000     0.348670000000     0.545650000000     0.0469063  
H66      H      0.562520000000     0.381720000000     0.593530000000     0.0467268  
H67      H      0.467330000000     0.299610000000     0.682070000000     0.0473459  
H68      H      0.527950000000     0.308160000000     0.695140000000     0.0443002  
H69      H      0.558060000000     0.360440000000     0.558910000000     0.0450636  
H70      H      0.501490000000     0.370220000000     0.580090000000     0.0464098  
H71      H      0.109550000000     0.974100000000     0.847020000000     0.0454974  
H72      H      0.115080000000     0.933830000000     0.786930000000     0.0455755  
H73      H      0.150450000000     0.966940000000     0.730480000000     0.0462399  
H74      H      0.142190000000     0.023120000000     0.813340000000     0.0462303  
H75      H      0.148540000000     0.046330000000     0.739650000000     0.0462458  
H76      H      0.184020000000     0.014180000000     0.699680000000     0.0467663  
H77      H      0.140100000000     0.986400000000     0.862600000000     0.0464465  
H78      H      0.145790000000     0.944630000000     0.800460000000     0.046366   
H79      H      0.155040000000     0.005760000000     0.680670000000     0.0451456  
H80      H      0.177450000000     0.055910000000     0.759940000000     0.0465322  
H81      H      0.298280000000     0.112060000000     0.651400000000     0.0462252  
H82      H      0.276870000000     0.124540000000     0.734050000000     0.0452674  
H83      H      0.321420000000     0.167690000000     0.763780000000     0.0466299  
H84      H      0.350920000000     0.149900000000     0.650350000000     0.0465653  
H85      H      0.393340000000     0.166940000000     0.700570000000     0.0461276  
H86      H      0.373120000000     0.205950000000     0.761660000000     0.0485464  
H87      H      0.301440000000     0.138770000000     0.631140000000     0.0479438  
H88      H      0.279620000000     0.151360000000     0.714870000000     0.0462031  
H89      H      0.372050000000     0.180330000000     0.782540000000     0.0471775  
H90      H      0.394820000000     0.192430000000     0.678610000000     0.0473987  
H91      H      0.773060000000     0.306620000000     0.188700000000     0.0454835  
H92      H      0.774720000000     0.265700000000     0.125370000000     0.0459475  
H93      H      0.809460000000     0.298400000000     0.068050000000     0.0463196  
H94      H      0.806470000000     0.355530000000     0.155250000000     0.0462763  
H95      H      0.811890000000     0.379680000000     0.082550000000     0.0462914  
H96      H      0.843810000000     0.345480000000     0.037320000000     0.0469701  
H97      H      0.803760000000     0.317420000000     0.202260000000     0.0464303  
H98      H      0.805440000000     0.274990000000     0.136830000000     0.0467224  
H99      H      0.814700000000     0.338400000000     0.020440000000     0.0451485  
H100     H      0.841040000000     0.387940000000     0.100740000000     0.0466879  
H101     H      0.185240000000     0.617110000000     0.013200000000     0.0464046  
H102     H      0.171130000000     0.654580000000     0.067970000000     0.0452979  
H103     H      0.173730000000     0.691240000000     0.015830000000     0.0463511  
H104     H      0.192490000000     0.639480000000     0.938870000000     0.0462303  
H105     H      0.222870000000     0.689100000000     0.905920000000     0.0456719  
H106     H      0.179480000000     0.712820000000     0.944830000000     0.0464157  
H107     H      0.156690000000     0.604710000000     0.990400000000     0.0466443  
H108     H      0.142410000000     0.643010000000     0.045960000000     0.0468023  
H109     H      0.209770000000     0.726230000000     0.962030000000     0.0457635  
H110     H      0.192980000000     0.674400000000     0.886990000000     0.0462794  
H111     H      0.961990000000     0.450500000000     0.987140000000     0.0467023  
H112     H      0.939360000000     0.455810000000     0.073710000000     0.0450891  
H113     H      0.982090000000     0.498870000000     0.106570000000     0.0464321  
H114     H      0.013200000000     0.491540000000     0.987110000000     0.0464977  
H115     H      0.056150000000     0.508380000000     0.034660000000     0.0461678  
H116     H      0.033140000000     0.539920000000     0.106510000000     0.0463987  
H117     H      0.962210000000     0.476870000000     0.971190000000     0.0480307  
H118     H      0.939270000000     0.482270000000     0.059030000000     0.0463195  
H119     H      0.033390000000     0.513760000000     0.122350000000     0.0475542  
H120     H      0.055700000000     0.534580000000     0.019570000000     0.0452419  
H121     H      0.478710000000     0.681360000000     0.823000000000     0.0445905  
H122     H      0.538780000000     0.696410000000     0.804150000000     0.0441762  
H123     H      0.533480000000     0.664500000000     0.739930000000     0.046558   
H124     H      0.448820000000     0.644320000000     0.763920000000     0.0462818  
H125     H      0.442750000000     0.597530000000     0.732880000000     0.0443181  
H126     H      0.507750000000     0.632130000000     0.682210000000     0.0500463  
H127     H      0.475850000000     0.694490000000     0.782020000000     0.0475661  
H128     H      0.539370000000     0.710120000000     0.761800000000     0.0485939  
H129     H      0.502560000000     0.611130000000     0.717700000000     0.0463181  
H130     H      0.444060000000     0.617860000000     0.698720000000     0.0483359  
H131     H      0.891740000000     0.061720000000     0.011000000000     0.0443695  
H132     H      0.832410000000     0.050560000000     0.022500000000     0.0463533  
H133     H      0.800290000000     0.997200000000     0.000890000000     0.0466401  
H134     H      0.884340000000     0.013950000000     0.982020000000     0.0462677  
H135     H      0.854710000000     0.977010000000     0.922750000000     0.0446794  
H136     H      0.792940000000     0.950640000000     0.980940000000     0.0485082  
H137     H      0.888840000000     0.041300000000     0.046130000000     0.0482428  
H138     H      0.825710000000     0.029630000000     0.058710000000     0.0499806  
H139     H      0.794990000000     0.964370000000     0.938020000000     0.0442084  
H140     H      0.856040000000     0.963700000000     0.964530000000     0.0475737  
H141     H      0.607620000000     0.801150000000     0.908050000000     0.0477483  
H142     H      0.624360000000     0.840500000000     0.830050000000     0.0468361  
H143     H      0.676740000000     0.856990000000     0.820350000000     0.0465475  
H144     H      0.653790000000     0.803060000000     0.927210000000     0.046492   
H145     H      0.704310000000     0.841680000000     0.944210000000     0.0465002  
H146     H      0.722810000000     0.858850000000     0.839340000000     0.0479929  
H147     H      0.609580000000     0.778980000000     0.881390000000     0.0473917  
H148     H      0.626350000000     0.818390000000     0.803260000000     0.0467376  
H149     H      0.721040000000     0.881040000000     0.866220000000     0.0474522  
H150     H      0.706060000000     0.819430000000     0.917450000000     0.0467898  
H151     H      0.551820000000     0.162660000000     0.869760000000     0.047955   
H152     H      0.494640000000     0.133150000000     0.923800000000     0.0472508  
H153     H      0.461160000000     0.137130000000     0.877020000000     0.0462633  
H154     H      0.536900000000     0.175930000000     0.804440000000     0.0465584  
H155     H      0.516780000000     0.206270000000     0.789510000000     0.0480279  
H156     H      0.447240000000     0.155100000000     0.810420000000     0.0448752  
H157     H      0.539000000000     0.135270000000     0.844220000000     0.0451741  
H158     H      0.485060000000     0.107470000000     0.895090000000     0.0459481  
H159     H      0.460360000000     0.177360000000     0.845310000000     0.0491769  
H160     H      0.500510000000     0.182220000000     0.757960000000     0.0457065  
H161     H      0.474800000000     0.773050000000     0.282240000000     0.0478108  
H162     H      0.537830000000     0.823840000000     0.265070000000     0.0486535  
H163     H      0.529990000000     0.862320000000     0.243500000000     0.0465523  
H164     H      0.446240000000     0.794110000000     0.263320000000     0.0463216  
H165     H      0.441500000000     0.815800000000     0.198160000000     0.0484767  
H166     H      0.497430000000     0.882500000000     0.220300000000     0.0463899  
H167     H      0.476180000000     0.788210000000     0.323530000000     0.0445564  
H168     H      0.535570000000     0.835790000000     0.307620000000     0.0441073  
H169     H      0.504390000000     0.868020000000     0.184850000000     0.0500085  
H170     H      0.438330000000     0.833650000000     0.232460000000     0.0443758  
H171     H      0.498260000000     0.845140000000     0.041480000000     0.0467244  
H172     H      0.449220000000     0.837470000000     0.981400000000     0.0459586  
H173     H      0.446480000000     0.801820000000     0.929070000000     0.0462354  
H174     H      0.511790000000     0.811410000000     0.012160000000     0.0463413  
H175     H      0.529350000000     0.805930000000     0.942830000000     0.0466405  
H176     H      0.462940000000     0.769160000000     0.896530000000     0.0453494  
H177     H      0.477660000000     0.816620000000     0.061530000000     0.0452716  
H178     H      0.429730000000     0.808990000000     0.002500000000     0.0464266  
H179     H      0.481240000000     0.799360000000     0.880170000000     0.0465196  
H180     H      0.509080000000     0.775500000000     0.956790000000     0.0456419  
H181     H      0.492060000000     0.034040000000     0.988450000000     0.0467854  
H182     H      0.533690000000     0.054100000000     0.064400000000     0.047949   
H183     H      0.531920000000     0.009430000000     0.088300000000     0.0467171  
H184     H      0.475620000000     0.981610000000     0.983510000000     0.0462982  
H185     H      0.452420000000     0.939870000000     0.033120000000     0.046072   
H186     H      0.514920000000     0.957000000000     0.084920000000     0.0459347  
H187     H      0.513740000000     0.031170000000     0.961570000000     0.0460979  
H188     H      0.555280000000     0.051050000000     0.037590000000     0.0471501  
H189     H      0.493300000000     0.960660000000     0.110700000000     0.0481218  
H190     H      0.474590000000     0.936640000000     0.008170000000     0.0453666  
H191     H      0.215330000000     0.498250000000     0.219370000000     0.0473065  
H192     H      0.156500000000     0.465570000000     0.269580000000     0.0479351  
H193     H      0.122990000000     0.466900000000     0.219620000000     0.0461568  
H194     H      0.201240000000     0.511250000000     0.153780000000     0.0464459  
H195     H      0.178970000000     0.539440000000     0.138330000000     0.0494842  
H196     H      0.110060000000     0.484490000000     0.150650000000     0.044371   
H197     H      0.204550000000     0.471030000000     0.193870000000     0.0451616  
H198     H      0.149480000000     0.440330000000     0.241130000000     0.0457795  
H199     H      0.119750000000     0.505380000000     0.187520000000     0.0482912  
H200     H      0.165390000000     0.516370000000     0.104610000000     0.0450835  
H201     H      0.135730000000     0.194080000000     0.552400000000     0.0451675  
H202     H      0.190550000000     0.222170000000     0.504450000000     0.0457139  
H203     H      0.215510000000     0.194380000000     0.527700000000     0.0462296  
H204     H      0.137400000000     0.153510000000     0.594370000000     0.0463994  
H205     H      0.172370000000     0.147480000000     0.644190000000     0.044867   
H206     H      0.217280000000     0.155620000000     0.561590000000     0.0481707  
H207     H      0.123840000000     0.166230000000     0.528210000000     0.0471443  
H208     H      0.182540000000     0.196180000000     0.477190000000     0.0478952  
H209     H      0.227660000000     0.177030000000     0.597820000000     0.0444254  
H210     H      0.157970000000     0.124040000000     0.611180000000     0.0494472  
H211     H      0.142140000000     0.274780000000     0.336660000000     0.0478188  
H212     H      0.182170000000     0.291330000000     0.414120000000     0.0467002  
H213     H      0.196860000000     0.342670000000     0.426410000000     0.0465498  
H214     H      0.141960000000     0.319960000000     0.320330000000     0.046503   
H215     H      0.179320000000     0.370810000000     0.304750000000     0.0467584  
H216     H      0.196790000000     0.387950000000     0.409900000000     0.047687   
H217     H      0.119330000000     0.275110000000     0.364310000000     0.0476312  
H218     H      0.159440000000     0.291690000000     0.441910000000     0.0466148  
H219     H      0.219540000000     0.387410000000     0.382410000000     0.0476166  
H220     H      0.156770000000     0.371430000000     0.332630000000     0.0466917  
H221     H      0.108200000000     0.616020000000     0.648750000000     0.0443941  
H222     H      0.163910000000     0.641890000000     0.603280000000     0.0448951  
H223     H      0.198520000000     0.683360000000     0.653130000000     0.0464431  
H224     H      0.119850000000     0.646010000000     0.718290000000     0.0461445  
H225     H      0.144600000000     0.699050000000     0.740690000000     0.0456318  
H226     H      0.211540000000     0.710190000000     0.719070000000     0.0471336  
H227     H      0.118340000000     0.605240000000     0.685470000000     0.0482342  
H228     H      0.177930000000     0.632990000000     0.636960000000     0.0492838  
H229     H      0.199880000000     0.725860000000     0.693820000000     0.0451897  
H230     H      0.152430000000     0.681390000000     0.768890000000     0.0476885  
H231     H      0.158260000000     0.545320000000     0.487460000000     0.0465767  
H232     H      0.149270000000     0.495520000000     0.546100000000     0.0469467  
H233     H      0.182820000000     0.481640000000     0.516270000000     0.0463117  
H234     H      0.194280000000     0.548140000000     0.435210000000     0.0462472  
H235     H      0.196590000000     0.513920000000     0.385230000000     0.0464008  
H236     H      0.219090000000     0.484440000000     0.461210000000     0.0456534  
H237     H      0.186900000000     0.564060000000     0.509020000000     0.0463306  
H238     H      0.177990000000     0.515340000000     0.566670000000     0.0452939  
H239     H      0.188570000000     0.464920000000     0.446270000000     0.0465244  
H240     H      0.226840000000     0.531570000000     0.402340000000     0.0454154  
H241     H      0.876490000000     0.381360000000     0.402250000000     0.0484832  
H242     H      0.816910000000     0.355510000000     0.450530000000     0.0492904  
H243     H      0.794220000000     0.305180000000     0.432680000000     0.0464876  
H244     H      0.873080000000     0.339970000000     0.368490000000     0.0462564  
H245     H      0.839900000000     0.305910000000     0.317010000000     0.0480587  
H246     H      0.790660000000     0.262140000000     0.390840000000     0.0451417  
H247     H      0.885650000000     0.369380000000     0.438600000000     0.0445751  
H248     H      0.829990000000     0.345240000000     0.483740000000     0.0451812  
H249     H      0.780570000000     0.279240000000     0.365790000000     0.0476606  
H250     H      0.846280000000     0.287070000000     0.344930000000     0.0457172  
H251     H      0.056970000000     0.537800000000     0.531050000000     0.046253   
H252     H      0.034560000000     0.508230000000     0.618410000000     0.0477325  
H253     H      0.983630000000     0.471320000000     0.602430000000     0.0463973  
H254     H      0.014110000000     0.511600000000     0.483810000000     0.0466858  
H255     H      0.963120000000     0.501000000000     0.484980000000     0.047143   
H256     H      0.940440000000     0.445210000000     0.554720000000     0.0460852  
H257     H      0.057160000000     0.511560000000     0.515370000000     0.0451164  
H258     H      0.035100000000     0.482450000000     0.601420000000     0.046273   
H259     H      0.940840000000     0.471540000000     0.571360000000     0.045258   
H260     H      0.962800000000     0.474790000000     0.467940000000     0.0481305  
H261     H      0.564700000000     0.388840000000     0.359540000000     0.0448072  
H262     H      0.505380000000     0.380480000000     0.363940000000     0.0467486  
H263     H      0.473180000000     0.329260000000     0.334550000000     0.0465067  
H264     H      0.556480000000     0.342200000000     0.326410000000     0.0463303  
H265     H      0.529870000000     0.309790000000     0.261130000000     0.0450342  
H266     H      0.464580000000     0.283240000000     0.309430000000     0.0485475  
H267     H      0.557780000000     0.366280000000     0.393200000000     0.0469203  
H268     H      0.496090000000     0.357800000000     0.398120000000     0.0466287  
H269     H      0.471010000000     0.299840000000     0.268100000000     0.0440972  
H270     H      0.527820000000     0.293730000000     0.301750000000     0.0498891  
H271     H      0.498230000000     0.210360000000     0.132210000000     0.0464759  
H272     H      0.491040000000     0.162420000000     0.193200000000     0.0465163  
H273     H      0.524840000000     0.148710000000     0.163810000000     0.0462528  
H274     H      0.534390000000     0.213210000000     0.079960000000     0.0461956  
H275     H      0.537270000000     0.178850000000     0.031420000000     0.0463039  
H276     H      0.560810000000     0.151030000000     0.108490000000     0.0459002  
H277     H      0.527010000000     0.230150000000     0.152660000000     0.045975   
H278     H      0.519880000000     0.183020000000     0.212780000000     0.0451569  
H279     H      0.530160000000     0.130920000000     0.094650000000     0.0472953  
H280     H      0.567590000000     0.196780000000     0.048160000000     0.0454736  
H281     H      0.120320000000     0.950910000000     0.028870000000     0.0472536  
H282     H      0.179100000000     0.976740000000     0.978560000000     0.0481023  
H283     H      0.212970000000     0.011370000000     0.028590000000     0.0461919  
H284     H      0.134840000000     0.978070000000     0.094440000000     0.0464131  
H285     H      0.157850000000     0.028720000000     0.109930000000     0.0494216  
H286     H      0.226350000000     0.042010000000     0.097740000000     0.0443517  
H287     H      0.130710000000     0.934130000000     0.054130000000     0.0451372  
H288     H      0.185650000000     0.958150000000     0.006800000000     0.045746   
H289     H      0.217080000000     0.053410000000     0.060740000000     0.0485338  
H290     H      0.171190000000     0.019080000000     0.143650000000     0.0449128  
H291     H      0.143400000000     0.148570000000     0.359610000000     0.0464908  
H292     H      0.154410000000     0.199330000000     0.300470000000     0.046453   
H293     H      0.160830000000     0.183460000000     0.229960000000     0.0462848  
H294     H      0.145390000000     0.114550000000     0.308610000000     0.0462843  
H295     H      0.181810000000     0.117010000000     0.257130000000     0.0468116  
H296     H      0.164980000000     0.149910000000     0.178690000000     0.0453597  
H297     H      0.113480000000     0.131960000000     0.340970000000     0.0454883  
H298     H      0.124150000000     0.180960000000     0.283740000000     0.0455461  
H299     H      0.193630000000     0.168360000000     0.200360000000     0.0468972  
H300     H      0.153250000000     0.099390000000     0.234800000000     0.0464538  
H301     H      0.400170000000     0.209140000000     0.176340000000     0.0466277  
H302     H      0.378940000000     0.188460000000     0.267770000000     0.047547   
H303     H      0.326510000000     0.152860000000     0.257240000000     0.0464038  
H304     H      0.355380000000     0.181540000000     0.132510000000     0.0465509  
H305     H      0.305280000000     0.174350000000     0.133090000000     0.0467112  
H306     H      0.282070000000     0.124900000000     0.213350000000     0.0462341  
H307     H      0.397240000000     0.180570000000     0.166200000000     0.0452194  
H308     H      0.376210000000     0.160030000000     0.257180000000     0.0463828  
H309     H      0.284310000000     0.153180000000     0.223430000000     0.0449908  
H310     H      0.303230000000     0.146330000000     0.121710000000     0.0477062  
H311     H      0.817500000000     0.453760000000     0.947700000000     0.0490463  
H312     H      0.878560000000     0.488970000000     0.904060000000     0.0480502  
H313     H      0.876430000000     0.528100000000     0.871740000000     0.046159   
H314     H      0.795750000000     0.482250000000     0.930670000000     0.0463683  
H315     H      0.784190000000     0.496770000000     0.864200000000     0.0471689  
H316     H      0.850770000000     0.555150000000     0.848390000000     0.0455351  
H317     H      0.829520000000     0.476060000000     0.982680000000     0.0446684  
H318     H      0.886680000000     0.509110000000     0.941690000000     0.044378   
H319     H      0.844750000000     0.530610000000     0.819010000000     0.0468092  
H320     H      0.793950000000     0.523310000000     0.891000000000     0.0451414  
H321     H      0.800670000000     0.478130000000     0.701150000000     0.0454892  
H322     H      0.822790000000     0.533270000000     0.646670000000     0.0467972  
H323     H      0.831000000000     0.518660000000     0.576230000000     0.0464375  
H324     H      0.800960000000     0.443740000000     0.648400000000     0.0462381  
H325     H      0.838080000000     0.443130000000     0.600880000000     0.0463265  
H326     H      0.832790000000     0.484730000000     0.523610000000     0.0457891  
H327     H      0.772320000000     0.465800000000     0.677800000000     0.0456867  
H328     H      0.793790000000     0.519290000000     0.624910000000     0.0462403  
H329     H      0.860330000000     0.498670000000     0.549230000000     0.0467598  
H330     H      0.810680000000     0.429760000000     0.574950000000     0.0462087  
H331     H      0.834680000000     0.779480000000     0.522560000000     0.0464057  
H332     H      0.893840000000     0.828700000000     0.511940000000     0.0444234  
H333     H      0.885960000000     0.868340000000     0.481560000000     0.0462987  
H334     H      0.802180000000     0.799650000000     0.499170000000     0.0466072  
H335     H      0.797060000000     0.826600000000     0.435290000000     0.0441845  
H336     H      0.857310000000     0.889340000000     0.462390000000     0.0476845  
H337     H      0.827340000000     0.793580000000     0.558150000000     0.049825   
H338     H      0.890180000000     0.846070000000     0.546510000000     0.0482553  
H339     H      0.856540000000     0.874590000000     0.420970000000     0.0446344  
H340     H      0.794270000000     0.838190000000     0.477860000000     0.0486414  
H341     H      0.799420000000     0.850310000000     0.804220000000     0.0466435  
H342     H      0.849930000000     0.860470000000     0.864330000000     0.0466004  
H343     H      0.884450000000     0.858720000000     0.813850000000     0.0462823  
H344     H      0.815890000000     0.844340000000     0.734120000000     0.0463186  
H345     H      0.830880000000     0.811640000000     0.704720000000     0.0466538  
H346     H      0.900140000000     0.851180000000     0.740000000000     0.0464256  
H347     H      0.818230000000     0.880570000000     0.788390000000     0.0456641  
H348     H      0.866800000000     0.890380000000     0.846370000000     0.0455293  
H349     H      0.882150000000     0.822800000000     0.762220000000     0.046238   
H350     H      0.849840000000     0.840120000000     0.683290000000     0.0452797  
H351     H      0.879010000000     0.721430000000     0.710950000000     0.0462344  
H352     H      0.842530000000     0.700490000000     0.628520000000     0.0482957  
H353     H      0.805560000000     0.650220000000     0.646290000000     0.0467155  
H354     H      0.855630000000     0.678330000000     0.757760000000     0.0464252  
H355     H      0.843350000000     0.627140000000     0.751220000000     0.0469278  
H356     H      0.782100000000     0.607000000000     0.693930000000     0.047652   
H357     H      0.854420000000     0.722160000000     0.732830000000     0.0452106  
H358     H      0.818570000000     0.701690000000     0.651660000000     0.0461291  
H359     H      0.806400000000     0.606820000000     0.670170000000     0.0481938  
H360     H      0.819020000000     0.627210000000     0.775070000000     0.046557   
H361     H      0.942770000000     0.154870000000     0.061010000000     0.0483325  
H362     H      0.969140000000     0.123720000000     0.113410000000     0.0496256  
H363     H      0.019940000000     0.152670000000     0.097010000000     0.0465263  
H364     H      0.984500000000     0.193160000000     0.026990000000     0.0461238  
H365     H      0.019770000000     0.194300000000     0.977830000000     0.0476541  
H366     H      0.063430000000     0.192480000000     0.055070000000     0.045235   
H367     H      0.954060000000     0.176800000000     0.096530000000     0.0443881  
H368     H      0.978610000000     0.147680000000     0.145520000000     0.045116   
H369     H      0.047030000000     0.164560000000     0.031040000000     0.0470864  
H370     H      0.037940000000     0.220510000000     0.004870000000     0.0457011  
H371     H      0.111360000000     0.141000000000     0.963310000000     0.0472383  
H372     H      0.160750000000     0.203730000000     0.982510000000     0.0484162  
H373     H      0.201110000000     0.197490000000     0.000850000000     0.0466469  
H374     H      0.134500000000     0.113630000000     0.978250000000     0.046205   
H375     H      0.157790000000     0.108460000000     0.041280000000     0.0482341  
H376     H      0.223580000000     0.166290000000     0.019650000000     0.0461049  
H377     H      0.126330000000     0.143590000000     0.921240000000     0.0447064  
H378     H      0.173050000000     0.203280000000     0.939260000000     0.0444226  
H379     H      0.208860000000     0.171640000000     0.056660000000     0.0500456  
H380     H      0.176000000000     0.107170000000     0.005580000000     0.0442022  
H381     H      0.364340000000     0.537340000000     0.629810000000     0.0495143  
H382     H      0.391010000000     0.505400000000     0.679500000000     0.048404   
H383     H      0.349590000000     0.466970000000     0.713670000000     0.0462322  
H384     H      0.313720000000     0.508380000000     0.647120000000     0.0464089  
H385     H      0.287350000000     0.496000000000     0.713650000000     0.0471965  
H386     H      0.296390000000     0.439670000000     0.737180000000     0.0458612  
H387     H      0.354530000000     0.513740000000     0.596990000000     0.0448733  
H388     H      0.379300000000     0.483920000000     0.643380000000     0.0443694  
H389     H      0.315020000000     0.465630000000     0.764410000000     0.0480596  
H390     H      0.270570000000     0.468240000000     0.689330000000     0.0452196  
H391     H      0.209570000000     0.517000000000     0.825630000000     0.0445963  
H392     H      0.162770000000     0.457620000000     0.807360000000     0.0442671  
H393     H      0.135380000000     0.463610000000     0.744740000000     0.0465071  
H394     H      0.202300000000     0.547230000000     0.767830000000     0.0462408  
H395     H      0.161380000000     0.554140000000     0.738920000000     0.0441937  
H396     H      0.128600000000     0.489560000000     0.688160000000     0.0501551  
H397     H      0.224880000000     0.519620000000     0.783870000000     0.0474883  
H398     H      0.175140000000     0.456890000000     0.764310000000     0.0485756  
H399     H      0.113580000000     0.495200000000     0.724450000000     0.0461351  
H400     H      0.179910000000     0.552580000000     0.703970000000     0.0483216  
H401     H      0.115940000000     0.289400000000     0.916080000000     0.0467722  
H402     H      0.139640000000     0.272930000000     0.838970000000     0.0480292  
H403     H      0.184360000000     0.318920000000     0.820280000000     0.0465293  
H404     H      0.151960000000     0.341510000000     0.925740000000     0.0465142  
H405     H      0.172600000000     0.385320000000     0.879530000000     0.047412   
H406     H      0.220380000000     0.371060000000     0.829940000000     0.0467812  
H407     H      0.140020000000     0.291540000000     0.943470000000     0.0465184  
H408     H      0.163690000000     0.275090000000     0.866480000000     0.0474358  
H409     H      0.196280000000     0.368850000000     0.802520000000     0.0465162  
H410     H      0.196690000000     0.387540000000     0.906990000000     0.0479195  
H411     H      0.643610000000     0.179180000000     0.944780000000     0.0473997  
H412     H      0.617310000000     0.120960000000     0.894920000000     0.0488988  
H413     H      0.659170000000     0.123310000000     0.862860000000     0.0462322  
H414     H      0.694760000000     0.200890000000     0.929400000000     0.0462692  
H415     H      0.722380000000     0.214790000000     0.863980000000     0.0475544  
H416     H      0.712980000000     0.149020000000     0.842130000000     0.0455121  
H417     H      0.653040000000     0.165590000000     0.978330000000     0.0443648  
H418     H      0.628150000000     0.110470000000     0.931110000000     0.0446639  
H419     H      0.695020000000     0.156220000000     0.813350000000     0.0480934  
H420     H      0.738360000000     0.203510000000     0.889410000000     0.0450148  
H421     H      0.821440000000     0.374910000000     0.878650000000     0.0482209  
H422     H      0.872100000000     0.363780000000     0.899650000000     0.0500122  
H423     H      0.869620000000     0.333940000000     0.840910000000     0.0466116  
H424     H      0.803200000000     0.349710000000     0.811410000000     0.0462891  
H425     H      0.782470000000     0.300380000000     0.791040000000     0.0479395  
H426     H      0.846240000000     0.303020000000     0.773750000000     0.0440096  
H427     H      0.841630000000     0.396800000000     0.846680000000     0.0443364  
H428     H      0.889210000000     0.386170000000     0.866200000000     0.0463343  
H429     H      0.832180000000     0.288050000000     0.815140000000     0.0490641  
H430     H      0.800070000000     0.314760000000     0.751500000000     0.0445512  
H431     H      0.961410000000     0.107680000000     0.543370000000     0.0482031  
H432     H      0.971520000000     0.169920000000     0.553550000000     0.0499148  
H433     H      0.003220000000     0.194770000000     0.494570000000     0.0459616  
H434     H      0.988580000000     0.111790000000     0.478910000000     0.0462765  
H435     H      0.038820000000     0.140670000000     0.460080000000     0.0475859  
H436     H      0.035930000000     0.199820000000     0.431280000000     0.0441417  
H437     H      0.940290000000     0.103550000000     0.508400000000     0.0444071  
H438     H      0.950010000000     0.162170000000     0.517700000000     0.0463483  
H439     H      0.050300000000     0.203120000000     0.474100000000     0.0486623  
H440     H      0.024820000000     0.140930000000     0.418320000000     0.0444959  
H441     H      0.823380000000     0.044040000000     0.594190000000     0.0444395  
H442     H      0.851910000000     0.018720000000     0.642960000000     0.0451433  
H443     H      0.845110000000     0.976710000000     0.594970000000     0.046449   
H444     H      0.805460000000     0.013170000000     0.525290000000     0.0462107  
H445     H      0.776590000000     0.959800000000     0.503990000000     0.0457321  
H446     H      0.832060000000     0.949370000000     0.529680000000     0.0472611  
H447     H      0.845030000000     0.054310000000     0.558110000000     0.0480903  
H448     H      0.875520000000     0.027140000000     0.610240000000     0.0494868  
H449     H      0.803910000000     0.933720000000     0.553770000000     0.0451596  
H450     H      0.802840000000     0.977470000000     0.476530000000     0.0481451  
H451     H      0.026050000000     0.129870000000     0.845120000000     0.0453047  
H452     H      0.066440000000     0.177860000000     0.787580000000     0.0456752  
H453     H      0.033270000000     0.180380000000     0.731790000000     0.0463704  
H454     H      0.976770000000     0.112650000000     0.811010000000     0.0461843  
H455     H      0.954160000000     0.097070000000     0.736610000000     0.0464566  
H456     H      0.985710000000     0.165870000000     0.700830000000     0.0468669  
H457     H      0.012980000000     0.146830000000     0.862080000000     0.0463074  
H458     H      0.055040000000     0.196760000000     0.802360000000     0.0467242  
H459     H      0.995020000000     0.146680000000     0.680260000000     0.0454786  
H460     H      0.943860000000     0.115210000000     0.758100000000     0.0464679  
H461     H      0.808500000000     0.195310000000     0.667320000000     0.0480724  
H462     H      0.792940000000     0.160220000000     0.750290000000     0.0469781  
H463     H      0.830950000000     0.146720000000     0.754930000000     0.0463698  
H464     H      0.851540000000     0.194100000000     0.641230000000     0.046715   
H465     H      0.862640000000     0.155820000000     0.623740000000     0.0480364  
H466     H      0.874640000000     0.145700000000     0.727790000000     0.0452709  
H467     H      0.834210000000     0.219500000000     0.689490000000     0.0472844  
H468     H      0.818680000000     0.184660000000     0.772040000000     0.0463186  
H469     H      0.848020000000     0.121350000000     0.707610000000     0.0460621  
H470     H      0.889130000000     0.179700000000     0.644900000000     0.046334   
H471     H      0.310010000000     0.788760000000     0.830850000000     0.0446849  
H472     H      0.296820000000     0.834490000000     0.812000000000     0.0442938  
H473     H      0.329900000000     0.861390000000     0.748500000000     0.0465378  
H474     H      0.347510000000     0.795870000000     0.772450000000     0.046263   
H475     H      0.395460000000     0.836620000000     0.742470000000     0.0442289  
H476     H      0.362660000000     0.868030000000     0.691390000000     0.0499117  
H477     H      0.296940000000     0.773000000000     0.789520000000     0.0475629  
H478     H      0.283260000000     0.821750000000     0.769270000000     0.0487917  
H479     H      0.383650000000     0.883530000000     0.727320000000     0.0460896  
H480     H      0.375030000000     0.817850000000     0.707860000000     0.0481251  
H481     H      0.525200000000     0.792580000000     0.690100000000     0.0451102  
H482     H      0.556190000000     0.847030000000     0.737760000000     0.0457519  
H483     H      0.529290000000     0.873420000000     0.717300000000     0.0462278  
H484     H      0.484390000000     0.795920000000     0.650920000000     0.046453   
H485     H      0.478760000000     0.831650000000     0.602680000000     0.045004   
H486     H      0.490370000000     0.876700000000     0.686260000000     0.0482879  
H487     H      0.497840000000     0.781680000000     0.715760000000     0.047383   
H488     H      0.530920000000     0.840010000000     0.766520000000     0.048156   
H489     H      0.511060000000     0.886460000000     0.648970000000     0.0443334  
H490     H      0.455830000000     0.817950000000     0.636770000000     0.0494457  
H491     H      0.694440000000     0.154220000000     0.275870000000     0.044031   
H492     H      0.680170000000     0.198710000000     0.254560000000     0.0443387  
H493     H      0.643700000000     0.193000000000     0.313930000000     0.0461631  
H494     H      0.663140000000     0.129250000000     0.342170000000     0.0464732  
H495     H      0.609920000000     0.107360000000     0.366510000000     0.0458638  
H496     H      0.617980000000     0.173330000000     0.380230000000     0.0482413  
H497     H      0.708820000000     0.168200000000     0.317630000000     0.0487954  
H498     H      0.693830000000     0.215830000000     0.294690000000     0.0476986  
H499     H      0.596740000000     0.152810000000     0.347840000000     0.0441443  
H500     H      0.631960000000     0.124520000000     0.400480000000     0.0499856  
H501     H      0.503530000000     0.119170000000     0.419960000000     0.048677   
H502     H      0.549100000000     0.182000000000     0.451040000000     0.0498255  
H503     H      0.526200000000     0.208290000000     0.431140000000     0.0464123  
H504     H      0.466020000000     0.125500000000     0.390890000000     0.0463769  
H505     H      0.464930000000     0.154220000000     0.333220000000     0.0498621  
H506     H      0.487250000000     0.214660000000     0.392430000000     0.0445353  
H507     H      0.487430000000     0.117430000000     0.460500000000     0.044052   
H508     H      0.529390000000     0.175390000000     0.489100000000     0.0450856  
H509     H      0.510690000000     0.216810000000     0.363400000000     0.0482608  
H510     H      0.444620000000     0.156300000000     0.364390000000     0.0458217  
H511     H      0.683730000000     0.193970000000     0.701880000000     0.0465015  
H512     H      0.723320000000     0.185380000000     0.638540000000     0.0466261  
H513     H      0.698970000000     0.179050000000     0.569590000000     0.0463191  
H514     H      0.645670000000     0.191130000000     0.654100000000     0.0463621  
H515     H      0.610740000000     0.154870000000     0.603250000000     0.0467527  
H516     H      0.659170000000     0.174130000000     0.521520000000     0.0452802  
H517     H      0.696020000000     0.223810000000     0.684150000000     0.045784   
H518     H      0.734210000000     0.215490000000     0.622850000000     0.0459495  
H519     H      0.650140000000     0.145590000000     0.541940000000     0.0466078  
H520     H      0.620490000000     0.183350000000     0.582050000000     0.0465446  
H521     H      0.540020000000     0.055240000000     0.573570000000     0.0452105  
H522     H      0.540020000000     0.033000000000     0.483840000000     0.046365   
H523     H      0.497980000000     0.982810000000     0.485700000000     0.0464405  
H524     H      0.497720000000     0.013370000000     0.608850000000     0.046491   
H525     H      0.482220000000     0.962140000000     0.622090000000     0.0475232  
H526     H      0.455870000000     0.940760000000     0.521050000000     0.0450972  
H527     H      0.513450000000     0.056640000000     0.562920000000     0.0463262  
H528     H      0.513420000000     0.034190000000     0.472590000000     0.047596   
H529     H      0.482650000000     0.939740000000     0.531680000000     0.0461556  
H530     H      0.455470000000     0.962950000000     0.610420000000     0.0466167  
H531     H      0.064780000000     0.867530000000     0.555420000000     0.0451835  
H532     H      0.038450000000     0.813160000000     0.507150000000     0.0456537  
H533     H      0.984980000000     0.787750000000     0.529330000000     0.046135   
H534     H      0.021650000000     0.865050000000     0.596730000000     0.0465937  
H535     H      0.979980000000     0.829660000000     0.645900000000     0.0452792  
H536     H      0.943630000000     0.785380000000     0.562490000000     0.0482218  
H537     H      0.048700000000     0.879060000000     0.530840000000     0.0472643  
H538     H      0.020430000000     0.820910000000     0.479490000000     0.0480668  
H539     H      0.954550000000     0.774970000000     0.598700000000     0.0444685  
H540     H      0.970900000000     0.843890000000     0.612900000000     0.0495891  
H541     H      0.222840000000     0.051800000000     0.522920000000     0.046277   
H542     H      0.175520000000     0.063130000000     0.507780000000     0.0442435  
H543     H      0.134670000000     0.015370000000     0.477450000000     0.0462477  
H544     H      0.200910000000     0.998340000000     0.501510000000     0.0465656  
H545     H      0.173900000000     0.965280000000     0.438060000000     0.0441495  
H546     H      0.111920000000     0.965200000000     0.460570000000     0.0476062  
H547     H      0.207310000000     0.030630000000     0.558540000000     0.0502849  
H548     H      0.156440000000     0.042540000000     0.541980000000     0.0485055  
H549     H      0.127700000000     0.978120000000     0.419170000000     0.0445501  
H550     H      0.161170000000     0.951890000000     0.480870000000     0.0485789  
H551     H      0.284160000000     0.783070000000     0.216890000000     0.0470464  
H552     H      0.313670000000     0.841030000000     0.268500000000     0.0478964  
H553     H      0.348640000000     0.874170000000     0.217880000000     0.0461983  
H554     H      0.310250000000     0.796960000000     0.150090000000     0.0464699  
H555     H      0.360680000000     0.817680000000     0.132100000000     0.0494735  
H556     H      0.377920000000     0.886770000000     0.147320000000     0.0444687  
H557     H      0.268000000000     0.794880000000     0.193220000000     0.0452567  
H558     H      0.295570000000     0.849230000000     0.241890000000     0.0458225  
H559     H      0.389260000000     0.876200000000     0.182730000000     0.0482232  
H560     H      0.351310000000     0.832140000000     0.099950000000     0.0450015  
H561     H      0.223480000000     0.697930000000     0.287440000000     0.0476724  
H562     H      0.172670000000     0.709390000000     0.269970000000     0.0486918  
H563     H      0.133460000000     0.662410000000     0.249960000000     0.0465157  
H564     H      0.201740000000     0.647860000000     0.270230000000     0.0462951  
H565     H      0.179280000000     0.620290000000     0.206020000000     0.0482038  
H566     H      0.112540000000     0.609170000000     0.228480000000     0.0461964  
H567     H      0.208530000000     0.684620000000     0.329200000000     0.0446582  
H568     H      0.160840000000     0.695720000000     0.312960000000     0.0443111  
H569     H      0.126990000000     0.630250000000     0.192380000000     0.0497723  
H570     H      0.161400000000     0.599610000000     0.240940000000     0.044263   
H571     H      0.339500000000     0.821800000000     0.568640000000     0.0452194  
H572     H      0.379300000000     0.811420000000     0.512800000000     0.0465372  
H573     H      0.356760000000     0.804200000000     0.438460000000     0.04634    
H574     H      0.301710000000     0.817790000000     0.516830000000     0.0462626  
H575     H      0.267850000000     0.781870000000     0.461720000000     0.045671   
H576     H      0.320940000000     0.802510000000     0.387050000000     0.0465275  
H577     H      0.349640000000     0.850400000000     0.547610000000     0.0469312  
H578     H      0.390380000000     0.839900000000     0.490850000000     0.0470621  
H579     H      0.307320000000     0.772530000000     0.404740000000     0.0455547  
H580     H      0.280000000000     0.812150000000     0.445950000000     0.0465313  
H581     H      0.138050000000     0.859310000000     0.338150000000     0.0476996  
H582     H      0.114130000000     0.819870000000     0.416020000000     0.0467176  
H583     H      0.149700000000     0.803520000000     0.426570000000     0.0465419  
H584     H      0.182520000000     0.857590000000     0.319950000000     0.0464742  
H585     H      0.193960000000     0.819090000000     0.303540000000     0.0464272  
H586     H      0.194070000000     0.801830000000     0.408600000000     0.0480393  
H587     H      0.162370000000     0.881500000000     0.365150000000     0.0473137  
H588     H      0.138430000000     0.842010000000     0.443110000000     0.0465997  
H589     H      0.169960000000     0.779640000000     0.381300000000     0.0474718  
H590     H      0.218130000000     0.841390000000     0.330630000000     0.0467977  
H591     H      0.611930000000     0.485220000000     0.400040000000     0.048835   
H592     H      0.641760000000     0.459970000000     0.457640000000     0.0485094  
H593     H      0.692350000000     0.492690000000     0.443070000000     0.0465597  
H594     H      0.652190000000     0.526070000000     0.367570000000     0.0462583  
H595     H      0.690080000000     0.531210000000     0.321480000000     0.0480755  
H596     H      0.734640000000     0.534600000000     0.401470000000     0.0450322  
H597     H      0.619960000000     0.507500000000     0.434590000000     0.044834   
H598     H      0.648120000000     0.483860000000     0.488620000000     0.0457799  
H599     H      0.720880000000     0.506160000000     0.378540000000     0.047271   
H600     H      0.706200000000     0.557820000000     0.348580000000     0.0453589  
H601     H      0.831770000000     0.432850000000     0.353290000000     0.0442164  
H602     H      0.884060000000     0.489980000000     0.361150000000     0.0464379  
H603     H      0.866500000000     0.524970000000     0.339960000000     0.0466537  
H604     H      0.793290000000     0.443850000000     0.326010000000     0.0462511  
H605     H      0.787780000000     0.474210000000     0.266530000000     0.0448332  
H606     H      0.829260000000     0.535910000000     0.321890000000     0.0486129  
H607     H      0.816260000000     0.438220000000     0.389110000000     0.0480055  
H608     H      0.872170000000     0.499030000000     0.397830000000     0.0497343  
H609     H      0.839080000000     0.531970000000     0.278440000000     0.0443096  
H610     H      0.774740000000     0.474870000000     0.309030000000     0.0474332  
H611     H      0.934990000000     0.827030000000     0.010600000000     0.0442992  
H612     H      0.945020000000     0.778790000000     0.023310000000     0.0463532  
H613     H      0.998400000000     0.799590000000     0.000620000000     0.046636   
H614     H      0.983180000000     0.867030000000     0.979950000000     0.046261   
H615     H      0.019620000000     0.873390000000     0.920220000000     0.0444299  
H616     H      0.045390000000     0.838500000000     0.979430000000     0.0485494  
H617     H      0.956170000000     0.845200000000     0.044890000000     0.0484998  
H618     H      0.966660000000     0.793530000000     0.058790000000     0.0502401  
H619     H      0.031210000000     0.826330000000     0.936810000000     0.0440392  
H620     H      0.033420000000     0.888670000000     0.961560000000     0.0475156  
H621     H      0.775090000000     0.811370000000     0.006690000000     0.04573    
H622     H      0.802830000000     0.865230000000     0.056260000000     0.045221   
H623     H      0.843420000000     0.863180000000     0.098240000000     0.0465114  
H624     H      0.803120000000     0.786490000000     0.029170000000     0.04617    
H625     H      0.820200000000     0.773570000000     0.098890000000     0.0443898  
H626     H      0.873130000000     0.842740000000     0.114530000000     0.0495515  
H627     H      0.801460000000     0.819830000000     0.979680000000     0.047862   
H628     H      0.831020000000     0.877440000000     0.032410000000     0.0471975  
H629     H      0.849280000000     0.827850000000     0.147020000000     0.0449823  
H630     H      0.842030000000     0.784520000000     0.063040000000     0.0480843  
H631     H      0.952310000000     0.852450000000     0.240980000000     0.046329   
H632     H      0.992630000000     0.845350000000     0.181950000000     0.0453967  
H633     H      0.031580000000     0.849400000000     0.231680000000     0.0464156  
H634     H      0.975680000000     0.858510000000     0.314710000000     0.0461595  
H635     H      0.025200000000     0.890370000000     0.348410000000     0.0454387  
H636     H      0.053890000000     0.853580000000     0.301510000000     0.0465626  
H637     H      0.942390000000     0.823720000000     0.261460000000     0.0465032  
H638     H      0.983970000000     0.816530000000     0.201040000000     0.0469918  
H639     H      0.065210000000     0.884230000000     0.288250000000     0.0456789  
H640     H      0.012300000000     0.859930000000     0.363850000000     0.0463635  
H641     H      0.834430000000     0.610030000000     0.205160000000     0.0473549  
H642     H      0.817950000000     0.630100000000     0.285220000000     0.0459412  
H643     H      0.829120000000     0.679930000000     0.265240000000     0.0463876  
H644     H      0.850960000000     0.651740000000     0.154260000000     0.0467445  
H645     H      0.887390000000     0.704410000000     0.155290000000     0.0463116  
H646     H      0.845070000000     0.721120000000     0.215520000000     0.0459494  
H647     H      0.808820000000     0.607420000000     0.181390000000     0.0489249  
H648     H      0.792110000000     0.627960000000     0.262840000000     0.0470628  
H649     H      0.872120000000     0.725050000000     0.236310000000     0.0453523  
H650     H      0.860440000000     0.700110000000     0.133660000000     0.0479836  
H651     H      0.685880000000     0.484200000000     0.750840000000     0.0447545  
H652     H      0.703570000000     0.543120000000     0.777040000000     0.0442209  
H653     H      0.672590000000     0.536390000000     0.843830000000     0.0464514  
H654     H      0.648120000000     0.452620000000     0.808770000000     0.0463156  
H655     H      0.602230000000     0.447440000000     0.844020000000     0.0443405  
H656     H      0.640530000000     0.509180000000     0.900890000000     0.049723   
H657     H      0.698380000000     0.478260000000     0.790100000000     0.0476899  
H658     H      0.717060000000     0.541320000000     0.818420000000     0.049297   
H659     H      0.619040000000     0.506560000000     0.867520000000     0.0458079  
H660     H      0.622660000000     0.445850000000     0.875460000000     0.0481631  
H661     H      0.495380000000     0.367720000000     0.962710000000     0.0441616  
H662     H      0.541360000000     0.355580000000     0.983670000000     0.0454024  
H663     H      0.537150000000     0.320050000000     0.924340000000     0.0463099  
H664     H      0.470950000000     0.336410000000     0.895900000000     0.0463366  
H665     H      0.450530000000     0.283940000000     0.871710000000     0.0465507  
H666     H      0.517840000000     0.294210000000     0.857620000000     0.0469349  
H667     H      0.508930000000     0.382390000000     0.920910000000     0.0485915  
H668     H      0.558540000000     0.369490000000     0.943610000000     0.049892   
H669     H      0.498380000000     0.273000000000     0.890890000000     0.0448084  
H670     H      0.467580000000     0.305490000000     0.837240000000     0.0456802  
H671     H      0.722830000000     0.537010000000     0.149440000000     0.0467471  
H672     H      0.682100000000     0.485470000000     0.207030000000     0.0464885  
H673     H      0.646510000000     0.451420000000     0.154870000000     0.046379   
H674     H      0.701550000000     0.521290000000     0.077860000000     0.0462893  
H675     H      0.653620000000     0.505270000000     0.046280000000     0.04649    
H676     H      0.624380000000     0.436350000000     0.080620000000     0.0465173  
H677     H      0.735300000000     0.519450000000     0.132770000000     0.0458632  
H678     H      0.695800000000     0.469450000000     0.188690000000     0.0458487  
H679     H      0.612970000000     0.453470000000     0.102320000000     0.0470672  
H680     H      0.664310000000     0.487300000000     0.025360000000     0.0451853  
H681     H      0.302440000000     0.521070000000     0.287300000000     0.0475894  
H682     H      0.287560000000     0.458380000000     0.265450000000     0.0487216  
H683     H      0.333680000000     0.465120000000     0.242930000000     0.0465744  
H684     H      0.352920000000     0.548660000000     0.269200000000     0.0462432  
H685     H      0.379690000000     0.554420000000     0.203740000000     0.04817    
H686     H      0.387260000000     0.496560000000     0.220680000000     0.0460804  
H687     H      0.315820000000     0.518030000000     0.327970000000     0.0446054  
H688     H      0.301500000000     0.458810000000     0.307590000000     0.0442546  
H689     H      0.366040000000     0.491560000000     0.185400000000     0.0499355  
H690     H      0.400260000000     0.555620000000     0.237600000000     0.0442295  
H691     H      0.481590000000     0.645300000000     0.097380000000     0.044831   
H692     H      0.514780000000     0.623410000000     0.141330000000     0.0441923  
H693     H      0.532420000000     0.653570000000     0.211190000000     0.0462062  
H694     H      0.486200000000     0.685500000000     0.147790000000     0.0463867  
H695     H      0.526290000000     0.729630000000     0.188630000000     0.0451607  
H696     H      0.532900000000     0.687100000000     0.262430000000     0.0482304  
H697     H      0.458630000000     0.635060000000     0.131560000000     0.0495654  
H698     H      0.494330000000     0.611370000000     0.178830000000     0.0484272  
H699     H      0.558140000000     0.706560000000     0.234290000000     0.0458239  
H700     H      0.498930000000     0.711940000000     0.213860000000     0.0472886  
H701     H      0.323890000000     0.513350000000     0.881610000000     0.0464185  
H702     H      0.282100000000     0.464500000000     0.942830000000     0.0465403  
H703     H      0.304220000000     0.482010000000     0.013090000000     0.0463865  
H704     H      0.360440000000     0.548320000000     0.931570000000     0.0462612  
H705     H      0.393550000000     0.546530000000     0.984830000000     0.0470192  
H706     H      0.342820000000     0.516620000000     0.063560000000     0.0452137  
H707     H      0.311090000000     0.530740000000     0.897730000000     0.0455328  
H708     H      0.270820000000     0.483640000000     0.956900000000     0.045701   
H709     H      0.351860000000     0.496930000000     0.044020000000     0.0470596  
H710     H      0.383450000000     0.565080000000     0.005480000000     0.0464872  
H711     H      0.518320000000     0.456000000000     0.058950000000     0.0465819  
H712     H      0.517060000000     0.476630000000     0.967960000000     0.0473975  
H713     H      0.500550000000     0.511890000000     0.979820000000     0.0463165  
H714     H      0.501960000000     0.483320000000     0.103950000000     0.0465597  
H715     H      0.459020000000     0.490160000000     0.105280000000     0.0466035  
H716     H      0.484850000000     0.539550000000     0.024880000000     0.0462625  
H717     H      0.544480000000     0.484660000000     0.068810000000     0.0453342  
H718     H      0.543270000000     0.505180000000     0.978200000000     0.0461496  
H719     H      0.458210000000     0.511160000000     0.015420000000     0.0450149  
H720     H      0.485630000000     0.518260000000     0.116130000000     0.047648   
In1      In     0.429270000000     0.550400000000     0.107340000000     2.39949    
In2      In     0.578000000000     0.449450000000     0.978930000000     2.39632    
In3      In     0.905800000000     0.790470000000     0.139900000000     2.40166    
In4      In     0.761840000000     0.539300000000     0.265410000000     2.39023    
In5      In     0.241770000000     0.777610000000     0.328800000000     2.39105    
In6      In     0.091970000000     0.884840000000     0.419960000000     2.39328    
In7      In     0.571840000000     0.123210000000     0.481500000000     2.3961     
In8      In     0.425890000000     0.872880000000     0.613400000000     2.40056    
In9      In     0.909200000000     0.112750000000     0.634690000000     2.40241    
In10     In     0.765130000000     0.220890000000     0.753260000000     2.39288    
In11     In     0.244080000000     0.458730000000     0.824870000000     2.39169    
In12     In     0.091860000000     0.201660000000     0.920570000000     2.39114    
In13     In     0.885090000000     0.790020000000     0.639310000000     2.40273    
In14     In     0.781460000000     0.537490000000     0.755710000000     2.39039    
In15     In     0.214120000000     0.113830000000     0.133710000000     2.40027    
In16     In     0.467440000000     0.216300000000     0.255500000000     2.38925    
In17     In     0.873000000000     0.440140000000     0.478520000000     2.40699    
In18     In     0.124690000000     0.547580000000     0.609810000000     2.40105    
In19     In     0.118570000000     0.202570000000     0.416420000000     2.38826    
In20     In     0.221470000000     0.460010000000     0.328770000000     2.38942    
In21     In     0.446200000000     0.870560000000     0.103760000000     2.401      
In22     In     0.558150000000     0.122040000000     0.976520000000     2.39257    
In23     In     0.794610000000     0.883770000000     0.920970000000     2.39065    
In24     In     0.536040000000     0.775100000000     0.824940000000     2.39071    
In25     In     0.123430000000     0.568620000000     0.112930000000     2.40341    
In26     In     0.872240000000     0.424360000000     0.978400000000     2.39513    
In27     In     0.210680000000     0.091860000000     0.638040000000     2.4017     
In28     In     0.462460000000     0.237940000000     0.765810000000     2.40736    
In29     In     0.215830000000     0.752900000000     0.829360000000     2.3893     
In30     In     0.113290000000     0.906810000000     0.918770000000     2.3895     
In31     In     0.554190000000     0.422910000000     0.479400000000     2.41175    
In32     In     0.449780000000     0.568960000000     0.603360000000     2.39853    
In33     In     0.883520000000     0.092370000000     0.138290000000     2.39961    
In34     In     0.774880000000     0.236340000000     0.255020000000     2.38617    
In35     In     0.795660000000     0.906540000000     0.418310000000     2.39026    
In36     In     0.536580000000     0.755580000000     0.324490000000     2.38898    
N1       N      0.725210000000     0.864990000000     0.393640000000    -0.164406   
N2       N      0.606980000000     0.796940000000     0.349640000000    -0.164394   
N3       N      0.867210000000     0.039870000000     0.210910000000    -0.166613   
N4       N      0.829610000000     0.952060000000     0.335720000000    -0.167106   
N5       N      0.803900000000     0.196370000000     0.225330000000    -0.164645   
N6       N      0.851250000000     0.128340000000     0.173420000000    -0.166411   
N7       N      0.464860000000     0.621550000000     0.531440000000    -0.166596   
N8       N      0.502590000000     0.709040000000     0.406030000000    -0.167394   
N9       N      0.527340000000     0.464070000000     0.512200000000    -0.165172   
N10      N      0.482400000000     0.533680000000     0.566720000000    -0.166551   
N11      N      0.141410000000     0.865320000000     0.893780000000    -0.164468   
N12      N      0.187340000000     0.794170000000     0.853440000000    -0.164341   
N13      N      0.533370000000     0.373200000000     0.557970000000    -0.166205   
N14      N      0.490610000000     0.285180000000     0.683630000000    -0.166816   
N15      N      0.171820000000     0.038770000000     0.709120000000    -0.1668     
N16      N      0.124980000000     0.952420000000     0.836630000000    -0.16744    
N17      N      0.393840000000     0.193070000000     0.735690000000    -0.164569   
N18      N      0.278640000000     0.126200000000     0.677080000000    -0.1666     
N19      N      0.833380000000     0.371140000000     0.049400000000    -0.166595   
N20      N      0.786550000000     0.283650000000     0.175400000000    -0.166851   
N21      N      0.203970000000     0.707900000000     0.912470000000    -0.167315   
N22      N      0.158750000000     0.621630000000     0.040370000000    -0.166339   
N23      N      0.055040000000     0.530370000000     0.076220000000    -0.166599   
N24      N      0.940270000000     0.460400000000     0.017140000000    -0.166341   
N25      N      0.470780000000     0.607650000000     0.694730000000    -0.164597   
N26      N      0.511930000000     0.706000000000     0.798320000000    -0.167615   
N27      N      0.820650000000     0.953440000000     0.946190000000    -0.167569   
N28      N      0.863150000000     0.052940000000     0.047580000000    -0.16475    
N29      N      0.724290000000     0.854690000000     0.895750000000    -0.164478   
N30      N      0.606250000000     0.805200000000     0.851600000000    -0.164433   
N31      N      0.478430000000     0.187530000000     0.794700000000    -0.165384   
N32      N      0.522760000000     0.131990000000     0.895100000000    -0.165895   
N33      N      0.466890000000     0.853380000000     0.195710000000    -0.164394   
N34      N      0.510210000000     0.798850000000     0.300090000000    -0.167574   
N35      N      0.500460000000     0.784930000000     0.906730000000    -0.167172   
N36      N      0.461030000000     0.832610000000     0.032450000000    -0.167076   
N37      N      0.479050000000     0.938150000000     0.064830000000    -0.166513   
N38      N      0.528090000000     0.053070000000     0.008000000000    -0.164941   
N39      N      0.140480000000     0.518600000000     0.139410000000    -0.165722   
N40      N      0.186640000000     0.466700000000     0.243520000000    -0.166138   
N41      N      0.196500000000     0.143640000000     0.609840000000    -0.166056   
N42      N      0.153100000000     0.196710000000     0.502790000000    -0.166443   
N43      N      0.192400000000     0.390090000000     0.353710000000    -0.164422   
N44      N      0.146590000000     0.272540000000     0.392810000000    -0.164368   
N45      N      0.182060000000     0.711410000000     0.743280000000    -0.166551   
N46      N      0.139410000000     0.613920000000     0.637550000000    -0.165979   
N47      N      0.210470000000     0.494100000000     0.411340000000    -0.167306   
N48      N      0.162580000000     0.532750000000     0.538140000000    -0.166393   
N49      N      0.809260000000     0.276490000000     0.341840000000    -0.165827   
N50      N      0.855380000000     0.373060000000     0.450090000000    -0.165549   
N51      N      0.941340000000     0.468980000000     0.514500000000    -0.166045   
N52      N      0.056410000000     0.514640000000     0.572090000000    -0.166498   
N53      N      0.494160000000     0.286170000000     0.279010000000    -0.166088   
N54      N      0.534100000000     0.380300000000     0.391680000000    -0.166921   
N55      N      0.551380000000     0.159460000000     0.058280000000    -0.166689   
N56      N      0.503630000000     0.199340000000     0.183510000000    -0.166941   
N57      N      0.196320000000     0.046150000000     0.108770000000    -0.165697   
N58      N      0.148650000000     0.947750000000     0.004490000000    -0.165963   
N59      N      0.178680000000     0.130750000000     0.206790000000    -0.165998   
N60      N      0.130990000000     0.169680000000     0.333600000000    -0.167364   
N61      N      0.283180000000     0.145320000000     0.167830000000    -0.166569   
N62      N      0.398640000000     0.188530000000     0.221830000000    -0.166395   
N63      N      0.813730000000     0.528930000000     0.842840000000    -0.167123   
N64      N      0.855940000000     0.474740000000     0.950250000000    -0.166708   
N65      N      0.840300000000     0.460550000000     0.551380000000    -0.166347   
N66      N      0.794420000000     0.503710000000     0.674730000000    -0.167109   
N67      N      0.822190000000     0.863530000000     0.443560000000    -0.167552   
N68      N      0.864950000000     0.808430000000     0.547940000000    -0.164676   
N69      N      0.868630000000     0.826100000000     0.711710000000    -0.166911   
N70      N      0.828930000000     0.873070000000     0.838270000000    -0.167304   
N71      N      0.808780000000     0.606530000000     0.727090000000    -0.164105   
N72      N      0.853140000000     0.721910000000     0.675810000000    -0.166441   
N73      N      0.049420000000     0.195020000000     0.004800000000    -0.1663     
N74      N      0.950860000000     0.143510000000     0.110260000000    -0.165789   
N75      N      0.195300000000     0.134840000000     0.043610000000    -0.165181   
N76      N      0.136240000000     0.176730000000     0.946420000000    -0.167647   
N77      N      0.285140000000     0.465310000000     0.738850000000    -0.166183   
N78      N      0.382560000000     0.517440000000     0.631230000000    -0.16604    
N79      N      0.142350000000     0.526450000000     0.700830000000    -0.164761   
N80      N      0.199690000000     0.483880000000     0.800410000000    -0.167549   
N81      N      0.202790000000     0.388850000000     0.850710000000    -0.164464   
N82      N      0.133480000000     0.271570000000     0.895250000000    -0.164395   
N83      N      0.724530000000     0.186030000000     0.839570000000    -0.166378   
N84      N      0.625380000000     0.140970000000     0.943630000000    -0.167527   
N85      N      0.808880000000     0.290980000000     0.777230000000    -0.167579   
N86      N      0.858820000000     0.387070000000     0.886260000000    -0.164654   
N87      N      0.048070000000     0.175310000000     0.440520000000    -0.16746    
N88      N      0.948700000000     0.132440000000     0.543820000000    -0.16478    
N89      N      0.801750000000     0.947800000000     0.503440000000    -0.166192   
N90      N      0.856530000000     0.046250000000     0.607250000000    -0.166      
N91      N      0.961540000000     0.128450000000     0.707920000000    -0.166627   
N92      N      0.047330000000     0.167470000000     0.836930000000    -0.167273   
N93      N      0.874240000000     0.145840000000     0.670740000000    -0.166465   
N94      N      0.807190000000     0.194030000000     0.724380000000    -0.164426   
N95      N      0.386380000000     0.855050000000     0.704240000000    -0.165134   
N96      N      0.286150000000     0.797850000000     0.805660000000    -0.167338   
N97      N      0.476690000000     0.856200000000     0.638120000000    -0.165945   
N98      N      0.529620000000     0.810110000000     0.740010000000    -0.166006   
N99      N      0.607470000000     0.136530000000     0.387400000000    -0.165032   
N100     N      0.704870000000     0.190920000000     0.280080000000    -0.167762   
N101     N      0.474810000000     0.189700000000     0.349500000000    -0.164931   
N102     N      0.524250000000     0.144820000000     0.460550000000    -0.165798   
N103     N      0.626650000000     0.159160000000     0.551640000000    -0.166508   
N104     N      0.717050000000     0.207630000000     0.673770000000    -0.166834   
N105     N      0.463010000000     0.941000000000     0.576800000000    -0.166672   
N106     N      0.532960000000     0.055160000000     0.517800000000    -0.166575   
N107     N      0.952040000000     0.805620000000     0.611070000000    -0.16584    
N108     N      0.050390000000     0.850300000000     0.505610000000    -0.166076   
N109     N      0.137000000000     0.954580000000     0.444500000000    -0.167686   
N110     N      0.193900000000     0.053970000000     0.546080000000    -0.164574   
N111     N      0.379910000000     0.855950000000     0.134060000000    -0.165961   
N112     N      0.283150000000     0.811980000000     0.242840000000    -0.166341   
N113     N      0.141520000000     0.607730000000     0.203890000000    -0.164978   
N114     N      0.197880000000     0.707500000000     0.305080000000    -0.167456   
N115     N      0.286780000000     0.789550000000     0.412300000000    -0.167181   
N116     N      0.372910000000     0.836230000000     0.540980000000    -0.166064   
N117     N      0.200320000000     0.806110000000     0.352300000000    -0.164343   
N118     N      0.132100000000     0.855190000000     0.394520000000    -0.164777   
N119     N      0.720500000000     0.534660000000     0.350080000000    -0.166619   
N120     N      0.620340000000     0.476340000000     0.451130000000    -0.165114   
N121     N      0.801780000000     0.508910000000     0.288890000000    -0.167455   
N122     N      0.854530000000     0.461320000000     0.388260000000    -0.16515    
N123     N      0.043000000000     0.863170000000     0.944070000000    -0.167659   
N124     N      0.943740000000     0.807740000000     0.047680000000    -0.164554   
N125     N      0.853600000000     0.804480000000     0.111950000000    -0.165983   
N126     N      0.800580000000     0.848640000000     0.006170000000    -0.166383   
N127     N      0.046460000000     0.874450000000     0.337910000000    -0.167329   
N128     N      0.959490000000     0.828980000000     0.210580000000    -0.166831   
N129     N      0.871610000000     0.723010000000     0.179330000000    -0.166487   
N130     N      0.806750000000     0.608360000000     0.238360000000    -0.164412   
N131     N      0.614400000000     0.473420000000     0.885560000000    -0.165293   
N132     N      0.711770000000     0.515250000000     0.778700000000    -0.167268   
N133     N      0.480370000000     0.281990000000     0.851650000000    -0.167586   
N134     N      0.532620000000     0.379440000000     0.958050000000    -0.165771   
N135     N      0.630720000000     0.467570000000     0.052440000000    -0.166547   
N136     N      0.716280000000     0.507240000000     0.182030000000    -0.166721   
N137     N      0.390380000000     0.528230000000     0.198720000000    -0.165054   
N138     N      0.291320000000     0.485160000000     0.302680000000    -0.167519   
N139     N      0.530940000000     0.715820000000     0.237640000000    -0.166032   
N140     N      0.480030000000     0.618380000000     0.131620000000    -0.165958   
N141     N      0.376150000000     0.534170000000     0.035420000000    -0.165995   
N142     N      0.289670000000     0.493300000000     0.907310000000    -0.167364   
N143     N      0.465890000000     0.519120000000     0.070850000000    -0.166594   
N144     N      0.537260000000     0.476750000000     0.013250000000    -0.166694   
O1       O      0.465230000000     0.578010000000     0.131140000000    -0.508171   
O2       O      0.444660000000     0.590820000000     0.104740000000    -0.492248   
O3       O      0.447220000000     0.528100000000     0.115270000000    -0.492456   
O4       O      0.407600000000     0.521980000000     0.149290000000    -0.485279   
O5       O      0.415040000000     0.557600000000     0.055290000000    -0.48523    
O6       O      0.413740000000     0.557150000000     0.157860000000    -0.501975   
O7       O      0.447190000000     0.540820000000     0.062790000000    -0.506383   
O8       O      0.390910000000     0.527780000000     0.087190000000    -0.506096   
O9       O      0.615970000000     0.473500000000     0.000220000000    -0.50467    
O10      O      0.592440000000     0.442980000000     0.031270000000    -0.48859    
O11      O      0.557390000000     0.469060000000     0.969510000000    -0.494891   
O12      O      0.590970000000     0.443610000000     0.925120000000    -0.500608   
O13      O      0.568720000000     0.410600000000     0.977340000000    -0.492857   
O14      O      0.599700000000     0.479050000000     0.938330000000    -0.48492    
O15      O      0.558370000000     0.457540000000     0.022510000000    -0.506035   
O16      O      0.541360000000     0.418250000000     0.962770000000    -0.504491   
O17      O      0.870300000000     0.780630000000     0.113070000000    -0.509173   
O18      O      0.888410000000     0.813610000000     0.141640000000    -0.493857   
O19      O      0.892740000000     0.750630000000     0.135710000000    -0.491707   
O20      O      0.925990000000     0.783360000000     0.096160000000    -0.482425   
O21      O      0.920340000000     0.812570000000     0.191560000000    -0.488007   
O22      O      0.921800000000     0.813770000000     0.090350000000    -0.500255   
O23      O      0.884880000000     0.763050000000     0.183660000000    -0.5058     
O24      O      0.944410000000     0.807270000000     0.159290000000    -0.509209   
O25      O      0.750770000000     0.537460000000     0.206940000000    -0.493826   
O26      O      0.727800000000     0.508210000000     0.240400000000    -0.493957   
O27      O      0.779130000000     0.579420000000     0.275910000000    -0.493123   
O28      O      0.751230000000     0.531760000000     0.324370000000    -0.504522   
O29      O      0.766930000000     0.506950000000     0.270370000000    -0.500127   
O30      O      0.733160000000     0.544800000000     0.292020000000    -0.4996     
O31      O      0.789670000000     0.568110000000     0.229130000000    -0.485424   
O32      O      0.796910000000     0.541260000000     0.281880000000    -0.502924   
O33      O      0.252370000000     0.785480000000     0.387740000000    -0.49718    
O34      O      0.275610000000     0.780260000000     0.353540000000    -0.497312   
O35      O      0.228170000000     0.803310000000     0.317650000000    -0.492351   
O36      O      0.252890000000     0.778780000000     0.270510000000    -0.50388    
O37      O      0.233610000000     0.738970000000     0.325020000000    -0.501366   
O38      O      0.270630000000     0.811140000000     0.300560000000    -0.494608   
O39      O      0.214040000000     0.780300000000     0.363050000000    -0.484853   
O40      O      0.205800000000     0.745940000000     0.311060000000    -0.503019   
O41      O      0.128040000000     0.915770000000     0.438980000000    -0.504117   
O42      O      0.101180000000     0.923800000000     0.423590000000    -0.502985   
O43      O      0.105000000000     0.858580000000     0.430080000000    -0.492401   
O44      O      0.080500000000     0.883680000000     0.478060000000    -0.503075   
O45      O      0.057680000000     0.881970000000     0.396860000000    -0.498658   
O46      O      0.063370000000     0.851210000000     0.448180000000    -0.494002   
O47      O      0.118910000000     0.881510000000     0.384600000000    -0.485851   
O48      O      0.081290000000     0.878600000000     0.360900000000    -0.497109   
O49      O      0.535130000000     0.116280000000     0.463340000000    -0.506306   
O50      O      0.560380000000     0.151230000000     0.482110000000    -0.49295    
O51      O      0.552520000000     0.082770000000     0.473470000000    -0.493046   
O52      O      0.591940000000     0.114850000000     0.438960000000    -0.483343   
O53      O      0.587530000000     0.144350000000     0.533590000000    -0.487539   
O54      O      0.585510000000     0.143470000000     0.428850000000    -0.500528   
O55      O      0.552840000000     0.095760000000     0.525920000000    -0.504933   
O56      O      0.610460000000     0.138150000000     0.500020000000    -0.506383   
O57      O      0.411440000000     0.850870000000     0.561780000000    -0.48538    
O58      O      0.387890000000     0.858010000000     0.592300000000    -0.506311   
O59      O      0.443780000000     0.913300000000     0.621160000000    -0.492073   
O60      O      0.409660000000     0.849770000000     0.663090000000    -0.502583   
O61      O      0.441590000000     0.848260000000     0.610470000000    -0.491765   
O62      O      0.404320000000     0.879350000000     0.655720000000    -0.485522   
O63      O      0.444450000000     0.900450000000     0.569010000000    -0.507332   
O64      O      0.461530000000     0.881360000000     0.638260000000    -0.508028   
O65      O      0.947170000000     0.135460000000     0.656270000000    -0.5095     
O66      O      0.922960000000     0.104980000000     0.686840000000    -0.487913   
O67      O      0.895820000000     0.139080000000     0.628350000000    -0.491119   
O68      O      0.930220000000     0.139630000000     0.590640000000    -0.48339    
O69      O      0.891370000000     0.072050000000     0.637000000000    -0.492664   
O70      O      0.926070000000     0.104920000000     0.586810000000    -0.501047   
O71      O      0.888140000000     0.119810000000     0.677330000000    -0.506217   
O72      O      0.873790000000     0.086970000000     0.607560000000    -0.509619   
O73      O      0.800750000000     0.252410000000     0.772400000000    -0.505198   
O74      O      0.773750000000     0.259750000000     0.755160000000    -0.502085   
O75      O      0.781160000000     0.197050000000     0.763000000000    -0.492089   
O76      O      0.737650000000     0.186920000000     0.782200000000    -0.496196   
O77      O      0.730170000000     0.217360000000     0.731720000000    -0.496986   
O78      O      0.753840000000     0.219620000000     0.811440000000    -0.504732   
O79      O      0.791020000000     0.217920000000     0.715190000000    -0.487008   
O80      O      0.752640000000     0.212690000000     0.695080000000    -0.493611   
O81      O      0.208200000000     0.453800000000     0.805970000000    -0.503631   
O82      O      0.235410000000     0.488810000000     0.821160000000    -0.501657   
O83      O      0.230460000000     0.419160000000     0.815130000000    -0.491692   
O84      O      0.272270000000     0.453330000000     0.796380000000    -0.493845   
O85      O      0.254790000000     0.462710000000     0.883860000000    -0.497534   
O86      O      0.255510000000     0.468990000000     0.766740000000    -0.503596   
O87      O      0.216570000000     0.428630000000     0.860080000000    -0.485597   
O88      O      0.278460000000     0.490180000000     0.848400000000    -0.49818    
O89      O      0.081750000000     0.198090000000     0.861380000000    -0.496911   
O90      O      0.058020000000     0.170050000000     0.896030000000    -0.497426   
O91      O      0.105650000000     0.241230000000     0.930610000000    -0.491701   
O92      O      0.063120000000     0.206890000000     0.947550000000    -0.494981   
O93      O      0.100550000000     0.171610000000     0.925170000000    -0.501494   
O94      O      0.079590000000     0.191480000000     0.978460000000    -0.503856   
O95      O      0.119550000000     0.231790000000     0.885620000000    -0.48494    
O96      O      0.127630000000     0.206690000000     0.940230000000    -0.50422    
O97      O      0.861810000000     0.804310000000     0.660560000000    -0.510361   
O98      O      0.892720000000     0.811950000000     0.691120000000    -0.488223   
O99      O      0.858730000000     0.749960000000     0.633730000000    -0.491801   
O100     O      0.857840000000     0.783220000000     0.595330000000    -0.482294   
O101     O      0.926030000000     0.814000000000     0.640960000000    -0.491859   
O102     O      0.892790000000     0.814190000000     0.590860000000    -0.501023   
O103     O      0.879010000000     0.762240000000     0.681920000000    -0.506297   
O104     O      0.911120000000     0.781110000000     0.612220000000    -0.50941    
O105     O      0.751730000000     0.543590000000     0.776030000000    -0.504538   
O106     O      0.741220000000     0.509090000000     0.755560000000    -0.49706    
O107     O      0.806350000000     0.577550000000     0.765100000000    -0.489071   
O108     O      0.814790000000     0.543340000000     0.786330000000    -0.497207   
O109     O      0.780520000000     0.504450000000     0.731100000000    -0.495138   
O110     O      0.780970000000     0.525070000000     0.812920000000    -0.507424   
O111     O      0.784270000000     0.566300000000     0.718260000000    -0.487984   
O112     O      0.793620000000     0.535630000000     0.699110000000    -0.497136   
O113     O      0.222090000000     0.086630000000     0.108840000000    -0.508099   
O114     O      0.188890000000     0.073280000000     0.136820000000    -0.490816   
O115     O      0.254680000000     0.136350000000     0.124510000000    -0.491821   
O116     O      0.220390000000     0.141640000000     0.091260000000    -0.485649   
O117     O      0.192450000000     0.106500000000     0.185800000000    -0.48523    
O118     O      0.190300000000     0.106460000000     0.084700000000    -0.503112   
O119     O      0.242460000000     0.123390000000     0.177200000000    -0.507185   
O120     O      0.200260000000     0.137320000000     0.155270000000    -0.506753   
O121     O      0.483230000000     0.193850000000     0.236010000000    -0.505091   
O122     O      0.487910000000     0.222330000000     0.202440000000    -0.490617   
O123     O      0.426920000000     0.196550000000     0.265080000000    -0.49454    
O124     O      0.483610000000     0.220630000000     0.311170000000    -0.497851   
O125     O      0.498530000000     0.254630000000     0.261910000000    -0.494173   
O126     O      0.457240000000     0.185520000000     0.294520000000    -0.481819   
O127     O      0.439350000000     0.207990000000     0.211930000000    -0.501604   
O128     O      0.462910000000     0.248160000000     0.268630000000    -0.503954   
O129     O      0.881000000000     0.413540000000     0.451790000000    -0.509788   
O130     O      0.847840000000     0.399510000000     0.480150000000    -0.490762   
O131     O      0.913590000000     0.463360000000     0.471550000000    -0.491224   
O132     O      0.880590000000     0.467150000000     0.434110000000    -0.484543   
O133     O      0.849840000000     0.433280000000     0.529080000000    -0.487073   
O134     O      0.847860000000     0.433580000000     0.431510000000    -0.503893   
O135     O      0.900470000000     0.446040000000     0.521820000000    -0.507346   
O136     O      0.863220000000     0.466380000000     0.501630000000    -0.511546   
O137     O      0.140570000000     0.525560000000     0.589330000000    -0.507901   
O138     O      0.146980000000     0.555660000000     0.558140000000    -0.48635    
O139     O      0.084210000000     0.522360000000     0.616050000000    -0.490999   
O140     O      0.117850000000     0.519740000000     0.652430000000    -0.483861   
O141     O      0.148600000000     0.588340000000     0.608490000000    -0.492653   
O142     O      0.148030000000     0.554880000000     0.659360000000    -0.501524   
O143     O      0.097120000000     0.539320000000     0.565580000000    -0.506954   
O144     O      0.115020000000     0.573240000000     0.635880000000    -0.509462   
O145     O      0.086660000000     0.206360000000     0.433390000000    -0.502501   
O146     O      0.079690000000     0.171450000000     0.421030000000    -0.499513   
O147     O      0.144270000000     0.242210000000     0.427320000000    -0.491892   
O148     O      0.119700000000     0.192900000000     0.474810000000    -0.503802   
O149     O      0.120990000000     0.171380000000     0.392010000000    -0.497711   
O150     O      0.152360000000     0.208260000000     0.445020000000    -0.494427   
O151     O      0.120990000000     0.232660000000     0.382030000000    -0.484561   
O152     O      0.126980000000     0.199930000000     0.357690000000    -0.497573   
O153     O      0.214670000000     0.463810000000     0.387820000000    -0.496947   
O154     O      0.218940000000     0.491300000000     0.352510000000    -0.498311   
O155     O      0.195170000000     0.420400000000     0.318650000000    -0.490772   
O156     O      0.220360000000     0.471030000000     0.271140000000    -0.503062   
O157     O      0.252130000000     0.455160000000     0.308620000000    -0.503939   
O158     O      0.187470000000     0.453950000000     0.300470000000    -0.493074   
O159     O      0.218560000000     0.429950000000     0.363790000000    -0.485686   
O160     O      0.260930000000     0.490020000000     0.325130000000    -0.501025   
O161     O      0.420870000000     0.880080000000     0.131710000000    -0.509403   
O162     O      0.405210000000     0.847070000000     0.103170000000    -0.493192   
O163     O      0.474120000000     0.910380000000     0.107010000000    -0.491359   
O164     O      0.473730000000     0.877970000000     0.147550000000    -0.480854   
O165     O      0.438290000000     0.848600000000     0.051860000000    -0.48883    
O166     O      0.438770000000     0.847100000000     0.152970000000    -0.499827   
O167     O      0.451450000000     0.898080000000     0.061150000000    -0.505628   
O168     O      0.468070000000     0.854360000000     0.083690000000    -0.510461   
O169     O      0.553540000000     0.127840000000     0.035560000000    -0.495      
O170     O      0.558390000000     0.155100000000     0.999250000000    -0.496866   
O171     O      0.530510000000     0.082150000000     0.970230000000    -0.489494   
O172     O      0.556440000000     0.134690000000     0.920300000000    -0.502514   
O173     O      0.599040000000     0.147760000000     0.975800000000    -0.502008   
O174     O      0.523960000000     0.117460000000     0.950620000000    -0.494025   
O175     O      0.555360000000     0.093010000000     0.013610000000    -0.491554   
O176     O      0.584760000000     0.115270000000     0.946460000000    -0.507274   
O177     O      0.798100000000     0.876490000000     0.862080000000    -0.497188   
O178     O      0.826420000000     0.881960000000     0.896960000000    -0.497457   
O179     O      0.754740000000     0.857810000000     0.931290000000    -0.49208    
O180     O      0.789100000000     0.849990000000     0.948540000000    -0.494922   
O181     O      0.825300000000     0.922660000000     0.925780000000    -0.500835   
O182     O      0.804290000000     0.882080000000     0.979220000000    -0.503779   
O183     O      0.764390000000     0.880740000000     0.885750000000    -0.484787   
O184     O      0.790000000000     0.914780000000     0.939240000000    -0.503658   
O185     O      0.541680000000     0.745080000000     0.804880000000    -0.504908   
O186     O      0.506290000000     0.735790000000     0.820490000000    -0.502328   
O187     O      0.575880000000     0.801590000000     0.815400000000    -0.490678   
O188     O      0.542270000000     0.809000000000     0.796960000000    -0.493058   
O189     O      0.504280000000     0.777480000000     0.847810000000    -0.498431   
O190     O      0.525140000000     0.776450000000     0.767290000000    -0.503151   
O191     O      0.566180000000     0.778680000000     0.860950000000    -0.485513   
O192     O      0.531180000000     0.780840000000     0.884020000000    -0.496423   
O193     O      0.115070000000     0.533540000000     0.138710000000    -0.50888    
O194     O      0.148340000000     0.553120000000     0.110680000000    -0.491132   
O195     O      0.082780000000     0.551410000000     0.119930000000    -0.49163    
O196     O      0.147360000000     0.585490000000     0.161740000000    -0.502944   
O197     O      0.145890000000     0.583760000000     0.061630000000    -0.486925   
O198     O      0.116480000000     0.589190000000     0.156190000000    -0.484572   
O199     O      0.095860000000     0.548260000000     0.069100000000    -0.50802    
O200     O      0.136600000000     0.605930000000     0.091280000000    -0.508563   
O201     O      0.854020000000     0.385680000000     0.996990000000    -0.506684   
O202     O      0.851080000000     0.410310000000     0.031080000000    -0.486542   
O203     O      0.912810000000     0.440450000000     0.972680000000    -0.490247   
O204     O      0.880800000000     0.403860000000     0.937230000000    -0.482748   
O205     O      0.847050000000     0.439620000000     0.978050000000    -0.494785   
O206     O      0.851140000000     0.408930000000     0.926760000000    -0.499781   
O207     O      0.899460000000     0.443530000000     0.023280000000    -0.503638   
O208     O      0.881520000000     0.460080000000     0.953760000000    -0.509102   
O209     O      0.193480000000     0.053480000000     0.657590000000    -0.50836    
O210     O      0.188560000000     0.077660000000     0.689860000000    -0.487746   
O211     O      0.250900000000     0.105550000000     0.633230000000    -0.491358   
O212     O      0.217830000000     0.071250000000     0.595230000000    -0.482533   
O213     O      0.187110000000     0.108860000000     0.639160000000    -0.494027   
O214     O      0.187840000000     0.076250000000     0.587900000000    -0.500843   
O215     O      0.238210000000     0.112110000000     0.682040000000    -0.506618   
O216     O      0.220680000000     0.127280000000     0.611670000000    -0.509468   
O217     O      0.455290000000     0.204940000000     0.796540000000    -0.507453   
O218     O      0.485410000000     0.220190000000     0.761090000000    -0.488945   
O219     O      0.422090000000     0.219760000000     0.774850000000    -0.488094   
O220     O      0.456070000000     0.261930000000     0.803890000000    -0.494382   
O221     O      0.493810000000     0.262090000000     0.727720000000    -0.490317   
O222     O      0.486020000000     0.257520000000     0.813890000000    -0.511704   
O223     O      0.434590000000     0.211180000000     0.727200000000    -0.501159   
O224     O      0.460200000000     0.260330000000     0.721170000000    -0.509556   
O225     O      0.247040000000     0.788780000000     0.810770000000    -0.50276    
O226     O      0.255170000000     0.762200000000     0.826600000000    -0.49948    
O227     O      0.189850000000     0.766360000000     0.818640000000    -0.491277   
O228     O      0.182260000000     0.724280000000     0.800550000000    -0.495072   
O229     O      0.214390000000     0.719820000000     0.854180000000    -0.497183   
O230     O      0.215180000000     0.741520000000     0.771390000000    -0.504591   
O231     O      0.213180000000     0.780350000000     0.863890000000    -0.485612   
O232     O      0.206880000000     0.741570000000     0.887880000000    -0.497436   
O233     O      0.119900000000     0.917440000000     0.859670000000    -0.496667   
O234     O      0.117010000000     0.941230000000     0.895530000000    -0.498995   
O235     O      0.138980000000     0.892980000000     0.928980000000    -0.491484   
O236     O      0.114670000000     0.918560000000     0.976720000000    -0.502544   
O237     O      0.074360000000     0.898530000000     0.923110000000    -0.501884   
O238     O      0.147500000000     0.934440000000     0.947230000000    -0.492612   
O239     O      0.115760000000     0.879420000000     0.883610000000    -0.484957   
O240     O      0.081700000000     0.871190000000     0.937540000000    -0.50393    
O241     O      0.579270000000     0.456590000000     0.448810000000    -0.509198   
O242     O      0.595320000000     0.442950000000     0.484430000000    -0.487716   
O243     O      0.530760000000     0.439500000000     0.471490000000    -0.488912   
O244     O      0.527000000000     0.400620000000     0.435750000000    -0.490485   
O245     O      0.562670000000     0.403170000000     0.523200000000    -0.488361   
O246     O      0.561190000000     0.403140000000     0.434940000000    -0.510975   
O247     O      0.550660000000     0.447030000000     0.520250000000    -0.505651   
O248     O      0.526230000000     0.393700000000     0.514740000000    -0.513024   
O249     O      0.471780000000     0.607150000000     0.583060000000    -0.507599   
O250     O      0.442110000000     0.582730000000     0.551120000000    -0.486786   
O251     O      0.475530000000     0.554730000000     0.609730000000    -0.491735   
O252     O      0.477830000000     0.590620000000     0.645890000000    -0.482315   
O253     O      0.408870000000     0.552080000000     0.601780000000    -0.492707   
O254     O      0.442260000000     0.584340000000     0.653240000000    -0.500546   
O255     O      0.457190000000     0.548650000000     0.560050000000    -0.506691   
O256     O      0.423410000000     0.533610000000     0.629690000000    -0.508656   
O257     O      0.909980000000     0.127280000000     0.110960000000    -0.508661   
O258     O      0.924410000000     0.109350000000     0.140610000000    -0.492309   
O259     O      0.857730000000     0.106470000000     0.131420000000    -0.492172   
O260     O      0.856050000000     0.071090000000     0.094870000000    -0.482171   
O261     O      0.891030000000     0.078350000000     0.190420000000    -0.487322   
O262     O      0.891200000000     0.075900000000     0.089850000000    -0.500598   
O263     O      0.876710000000     0.113680000000     0.180720000000    -0.506222   
O264     O      0.860340000000     0.054620000000     0.159620000000    -0.508808   
O265     O      0.780260000000     0.247740000000     0.196260000000    -0.491964   
O266     O      0.779660000000     0.271800000000     0.234180000000    -0.496538   
O267     O      0.799760000000     0.221310000000     0.264520000000    -0.489046   
O268     O      0.808890000000     0.263500000000     0.284550000000    -0.492318   
O269     O      0.735360000000     0.226480000000     0.258040000000    -0.502332   
O270     O      0.775600000000     0.247790000000     0.312880000000    -0.503415   
O271     O      0.779310000000     0.211800000000     0.216230000000    -0.485812   
O272     O      0.744090000000     0.200430000000     0.274410000000    -0.505855   
O273     O      0.826550000000     0.898880000000     0.423260000000    -0.50129    
O274     O      0.791280000000     0.870890000000     0.436120000000    -0.503715   
O275     O      0.755850000000     0.892230000000     0.429260000000    -0.492351   
O276     O      0.805270000000     0.917930000000     0.476600000000    -0.503293   
O277     O      0.827220000000     0.940590000000     0.394360000000    -0.497165   
O278     O      0.790250000000     0.934840000000     0.445830000000    -0.49479    
O279     O      0.765250000000     0.879320000000     0.383090000000    -0.484641   
O280     O      0.799130000000     0.917240000000     0.359360000000    -0.496247   
O281     O      0.532420000000     0.744640000000     0.383420000000    -0.496992   
O282     O      0.505680000000     0.720570000000     0.347320000000    -0.498495   
O283     O      0.576400000000     0.769860000000     0.313800000000    -0.490897   
O284     O      0.525810000000     0.744100000000     0.266510000000    -0.502426   
O285     O      0.505830000000     0.763510000000     0.320520000000    -0.50194    
O286     O      0.543290000000     0.728720000000     0.295040000000    -0.492191   
O287     O      0.566920000000     0.782650000000     0.360010000000    -0.484633   
O288     O      0.541010000000     0.791240000000     0.306620000000    -0.503769   


