data_structure

_audit_creation_method RASPA-1.0
_audit_creation_date 2023-5-23
_audit_author_name 'Poobodin Mano'

_cell_length_a    70.9533
_cell_length_b    71.9242
_cell_length_c    70.9812
_cell_angle_alpha 89.9996
_cell_angle_beta  89.9998
_cell_angle_gamma 90.0006
_cell_volume      362235

_symmetry_cell_setting          triclinic
_symmetry_space_group_name_Hall 'P 1'
_symmetry_space_group_name_H-M  'P 1'
_symmetry_Int_Tables_number     1

_symmetry_equiv_pos_as_xyz 'x,y,z'

loop_
_atom_site_label
_atom_site_type_symbol
_atom_site_fract_x
_atom_site_fract_y
_atom_site_fract_z
_atom_site_charge
C1       C      0.564180000000     0.741700000000     0.895580000000     0.404751   
C2       C      0.627780000000     0.716200000000     0.890620000000     0.404392   
C3       C      0.609890000000     0.768300000000     0.873030000000     0.404172   
C4       C      0.605820000000     0.742700000000     0.936640000000     0.404099   
C5       C      0.564180000000     0.741800000000     0.111570000000     0.404595   
C6       C      0.627780000000     0.716270000000     0.116520000000     0.404667   
C7       C      0.605810000000     0.742750000000     0.070500000000     0.404443   
C8       C      0.609910000000     0.768380000000     0.134100000000     0.404584   
C9       C      0.430230000000     0.741870000000     0.895440000000     0.404826   
C10      C      0.366610000000     0.716440000000     0.890510000000     0.403802   
C11      C      0.388610000000     0.742930000000     0.936520000000     0.404563   
C12      C      0.384510000000     0.768530000000     0.872910000000     0.403944   
C13      C      0.430230000000     0.741980000000     0.111510000000     0.404863   
C14      C      0.366600000000     0.716570000000     0.116370000000     0.404327   
C15      C      0.384500000000     0.768670000000     0.133960000000     0.404326   
C16      C      0.388650000000     0.743020000000     0.070380000000     0.404774   
C17      C      0.743510000000     0.425890000000     0.897100000000     0.40467    
C18      C      0.717940000000     0.363270000000     0.890420000000     0.403988   
C19      C      0.770680000000     0.381910000000     0.872660000000     0.403696   
C20      C      0.745290000000     0.383180000000     0.936600000000     0.403754   
C21      C      0.743530000000     0.425950000000     0.109780000000     0.405196   
C22      C      0.717980000000     0.363320000000     0.116450000000     0.404305   
C23      C      0.745310000000     0.383230000000     0.070270000000     0.403755   
C24      C      0.770730000000     0.381970000000     0.134210000000     0.403827   
C25      C      0.744130000000     0.558130000000     0.897260000000     0.404143   
C26      C      0.720270000000     0.621710000000     0.890330000000     0.404365   
C27      C      0.746270000000     0.600270000000     0.936630000000     0.404008   
C28      C      0.771950000000     0.601680000000     0.872590000000     0.40414    
C29      C      0.744120000000     0.558190000000     0.109710000000     0.404214   
C30      C      0.720250000000     0.621760000000     0.116670000000     0.404454   
C31      C      0.771930000000     0.601750000000     0.134390000000     0.40394    
C32      C      0.746250000000     0.600340000000     0.070360000000     0.403995   
C33      C      0.564090000000     0.884980000000     0.252690000000     0.404041   
C34      C      0.628150000000     0.882590000000     0.278280000000     0.404281   
C35      C      0.610080000000     0.862930000000     0.226610000000     0.404105   
C36      C      0.604080000000     0.926560000000     0.250660000000     0.404154   
C37      C      0.564250000000     0.101100000000     0.251430000000     0.404186   
C38      C      0.628220000000     0.103020000000     0.276800000000     0.40374    
C39      C      0.604220000000     0.058770000000     0.249840000000     0.40485    
C40      C      0.610280000000     0.121400000000     0.224050000000     0.404276   
C41      C      0.430470000000     0.101290000000     0.251350000000     0.40413    
C42      C      0.366490000000     0.103300000000     0.276690000000     0.403561   
C43      C      0.384480000000     0.121670000000     0.223960000000     0.403808   
C44      C      0.390430000000     0.059030000000     0.249730000000     0.40532    
C45      C      0.430250000000     0.885150000000     0.252620000000     0.403882   
C46      C      0.366170000000     0.882880000000     0.278150000000     0.404256   
C47      C      0.390350000000     0.926810000000     0.250550000000     0.404433   
C48      C      0.384240000000     0.863200000000     0.226480000000     0.404589   
C49      C      0.431280000000     0.254190000000     0.896960000000     0.407888   
C50      C      0.370310000000     0.269870000000     0.894940000000     0.409824   
C51      C      0.388940000000     0.215100000000     0.876360000000     0.409721   
C52      C      0.390770000000     0.230730000000     0.937310000000     0.407556   
C53      C      0.431320000000     0.254320000000     0.109770000000     0.40728    
C54      C      0.370360000000     0.270020000000     0.111750000000     0.409617   
C55      C      0.390810000000     0.230840000000     0.069410000000     0.407949   
C56      C      0.388960000000     0.215250000000     0.130360000000     0.409337   
C57      C      0.563440000000     0.254030000000     0.897020000000     0.407322   
C58      C      0.624410000000     0.269650000000     0.895020000000     0.409365   
C59      C      0.603930000000     0.230510000000     0.937380000000     0.407936   
C60      C      0.605750000000     0.214880000000     0.876430000000     0.409253   
C61      C      0.563490000000     0.254080000000     0.109790000000     0.407396   
C62      C      0.624460000000     0.269690000000     0.111810000000     0.40991    
C63      C      0.605790000000     0.214950000000     0.130430000000     0.409709   
C64      C      0.603970000000     0.230530000000     0.069470000000     0.407761   
C65      C      0.104100000000     0.425930000000     0.255260000000     0.404629   
C66      C      0.110420000000     0.362380000000     0.279270000000     0.404145   
C67      C      0.064370000000     0.384260000000     0.252810000000     0.404066   
C68      C      0.128790000000     0.382200000000     0.227740000000     0.403885   
C69      C      0.890660000000     0.425690000000     0.255320000000     0.403999   
C70      C      0.884430000000     0.362140000000     0.279310000000     0.404241   
C71      C      0.866040000000     0.381940000000     0.227780000000     0.404158   
C72      C      0.930460000000     0.384080000000     0.252850000000     0.404053   
C73      C      0.890620000000     0.557930000000     0.256300000000     0.404602   
C74      C      0.884020000000     0.621510000000     0.280560000000     0.404334   
C75      C      0.930290000000     0.599770000000     0.254500000000     0.404446   
C76      C      0.866210000000     0.601760000000     0.228930000000     0.403522   
C77      C      0.103880000000     0.558160000000     0.256230000000     0.404167   
C78      C      0.110340000000     0.621760000000     0.280480000000     0.404046   
C79      C      0.128180000000     0.602050000000     0.228840000000     0.403936   
C80      C      0.064110000000     0.599910000000     0.254450000000     0.403701   
C81      C      0.250310000000     0.558350000000     0.897120000000     0.403699   
C82      C      0.274110000000     0.621940000000     0.890220000000     0.40396    
C83      C      0.222430000000     0.601900000000     0.872480000000     0.403771   
C84      C      0.248100000000     0.600470000000     0.936510000000     0.404001   
C85      C      0.250290000000     0.558490000000     0.109660000000     0.404472   
C86      C      0.274100000000     0.622080000000     0.116520000000     0.404599   
C87      C      0.248100000000     0.600580000000     0.070250000000     0.404068   
C88      C      0.222420000000     0.602060000000     0.134280000000     0.404039   
C89      C      0.251210000000     0.426250000000     0.109690000000     0.404608   
C90      C      0.276850000000     0.363650000000     0.116390000000     0.403854   
C91      C      0.224090000000     0.382260000000     0.134160000000     0.403892   
C92      C      0.249480000000     0.383520000000     0.070210000000     0.404175   
C93      C      0.251170000000     0.426110000000     0.897030000000     0.405045   
C94      C      0.276790000000     0.363500000000     0.890340000000     0.404001   
C95      C      0.249460000000     0.383410000000     0.936530000000     0.403544   
C96      C      0.224040000000     0.382110000000     0.872590000000     0.403124   
C97      C      0.889220000000     0.741510000000     0.570460000000     0.404708   
C98      C      0.884190000000     0.716030000000     0.634040000000     0.403792   
C99      C      0.930240000000     0.742540000000     0.612090000000     0.40444    
C100     C      0.866630000000     0.768200000000     0.616120000000     0.404841   
C101     C      0.105180000000     0.741700000000     0.570390000000     0.404206   
C102     C      0.110230000000     0.716210000000     0.633970000000     0.404522   
C103     C      0.127760000000     0.768390000000     0.616060000000     0.403883   
C104     C      0.064160000000     0.742670000000     0.612020000000     0.404492   
C105     C      0.889200000000     0.741540000000     0.436550000000     0.404689   
C106     C      0.884140000000     0.716100000000     0.372960000000     0.404199   
C107     C      0.866580000000     0.768250000000     0.390910000000     0.404474   
C108     C      0.930200000000     0.742610000000     0.394900000000     0.404154   
C109     C      0.105160000000     0.741790000000     0.436480000000     0.404262   
C110     C      0.110180000000     0.716360000000     0.372870000000     0.403894   
C111     C      0.064120000000     0.742780000000     0.394880000000     0.404392   
C112     C      0.127700000000     0.768520000000     0.390820000000     0.404692   
C113     C      0.104030000000     0.425730000000     0.751510000000     0.403945   
C114     C      0.110350000000     0.362190000000     0.727490000000     0.403882   
C115     C      0.128720000000     0.381990000000     0.779030000000     0.403696   
C116     C      0.064290000000     0.384050000000     0.753970000000     0.404104   
C117     C      0.890610000000     0.425570000000     0.751530000000     0.404129   
C118     C      0.884340000000     0.362020000000     0.727520000000     0.403727   
C119     C      0.930390000000     0.383940000000     0.753980000000     0.404244   
C120     C      0.865970000000     0.381820000000     0.779060000000     0.404163   
C121     C      0.890580000000     0.557810000000     0.750630000000     0.40459    
C122     C      0.884000000000     0.621400000000     0.726400000000     0.403649   
C123     C      0.866210000000     0.601640000000     0.778030000000     0.403939   
C124     C      0.930270000000     0.599630000000     0.752420000000     0.403693   
C125     C      0.103830000000     0.557960000000     0.750550000000     0.404112   
C126     C      0.110330000000     0.621560000000     0.726310000000     0.403988   
C127     C      0.064090000000     0.599740000000     0.752360000000     0.40416    
C128     C      0.128160000000     0.601830000000     0.777940000000     0.403979   
C129     C      0.248070000000     0.100210000000     0.436400000000     0.404501   
C130     C      0.272980000000     0.103270000000     0.371960000000     0.403561   
C131     C      0.245630000000     0.059160000000     0.396040000000     0.403925   
C132     C      0.221460000000     0.122760000000     0.390740000000     0.404302   
C133     C      0.246300000000     0.885730000000     0.436470000000     0.404615   
C134     C      0.271680000000     0.882720000000     0.372370000000     0.403933   
C135     C      0.220070000000     0.863310000000     0.390620000000     0.404366   
C136     C      0.244550000000     0.926950000000     0.396180000000     0.404352   
C137     C      0.246330000000     0.885630000000     0.570300000000     0.403889   
C138     C      0.271730000000     0.882560000000     0.634390000000     0.403848   
C139     C      0.244610000000     0.926820000000     0.610620000000     0.404126   
C140     C      0.220130000000     0.863170000000     0.616140000000     0.404427   
C141     C      0.248080000000     0.100100000000     0.570300000000     0.404189   
C142     C      0.272960000000     0.103140000000     0.634740000000     0.403973   
C143     C      0.221450000000     0.122630000000     0.615950000000     0.404264   
C144     C      0.245630000000     0.059030000000     0.610650000000     0.403877   
C145     C      0.105240000000     0.243410000000     0.436380000000     0.404392   
C146     C      0.110160000000     0.268510000000     0.372520000000     0.403831   
C147     C      0.128200000000     0.216770000000     0.390900000000     0.404296   
C148     C      0.064300000000     0.242010000000     0.394860000000     0.404388   
C149     C      0.889390000000     0.243170000000     0.436420000000     0.404335   
C150     C      0.884500000000     0.268250000000     0.372550000000     0.403968   
C151     C      0.930360000000     0.241840000000     0.394930000000     0.404876   
C152     C      0.866480000000     0.216500000000     0.390940000000     0.404151   
C153     C      0.889370000000     0.243120000000     0.570360000000     0.404265   
C154     C      0.884490000000     0.268180000000     0.634240000000     0.403612   
C155     C      0.866480000000     0.216440000000     0.615840000000     0.404149   
C156     C      0.930350000000     0.241770000000     0.611840000000     0.404248   
C157     C      0.105250000000     0.243320000000     0.570310000000     0.404269   
C158     C      0.110140000000     0.268370000000     0.634200000000     0.403972   
C159     C      0.064290000000     0.241890000000     0.611820000000     0.404123   
C160     C      0.128180000000     0.216630000000     0.615780000000     0.404441   
C161     C      0.748020000000     0.885450000000     0.570460000000     0.403591   
C162     C      0.722640000000     0.882360000000     0.634560000000     0.403406   
C163     C      0.774240000000     0.862970000000     0.616290000000     0.403879   
C164     C      0.749810000000     0.926620000000     0.610800000000     0.404595   
C165     C      0.746600000000     0.099900000000     0.570440000000     0.403768   
C166     C      0.721700000000     0.102950000000     0.634880000000     0.404042   
C167     C      0.748990000000     0.058830000000     0.610790000000     0.403855   
C168     C      0.773220000000     0.122430000000     0.616100000000     0.404174   
C169     C      0.746610000000     0.099980000000     0.436540000000     0.404248   
C170     C      0.721720000000     0.103010000000     0.372090000000     0.404291   
C171     C      0.773230000000     0.122490000000     0.390860000000     0.403579   
C172     C      0.748990000000     0.058900000000     0.396210000000     0.404628   
C173     C      0.747990000000     0.885500000000     0.436640000000     0.403771   
C174     C      0.722600000000     0.882450000000     0.372540000000     0.404154   
C175     C      0.749790000000     0.926680000000     0.396310000000     0.404256   
C176     C      0.774200000000     0.863030000000     0.390800000000     0.403833   
C177     C      0.430240000000     0.885030000000     0.754220000000     0.403925   
C178     C      0.366180000000     0.882650000000     0.728650000000     0.40397    
C179     C      0.384260000000     0.863020000000     0.780340000000     0.403889   
C180     C      0.390270000000     0.926620000000     0.756230000000     0.404186   
C181     C      0.430400000000     0.101040000000     0.755420000000     0.404567   
C182     C      0.366430000000     0.103140000000     0.730060000000     0.403519   
C183     C      0.390310000000     0.058840000000     0.757010000000     0.404871   
C184     C      0.384430000000     0.121490000000     0.782790000000     0.404173   
C185     C      0.564090000000     0.884870000000     0.754310000000     0.404272   
C186     C      0.628170000000     0.882420000000     0.728790000000     0.404058   
C187     C      0.604110000000     0.926420000000     0.756350000000     0.404373   
C188     C      0.610040000000     0.862810000000     0.780470000000     0.404522   
C189     C      0.564190000000     0.100900000000     0.755460000000     0.40428    
C190     C      0.628170000000     0.102900000000     0.730140000000     0.403955   
C191     C      0.610190000000     0.121270000000     0.782870000000     0.40416    
C192     C      0.604220000000     0.058630000000     0.757090000000     0.404954   
C193     C      0.612870000000     0.028520000000     0.772530000000    -0.0205286  
C194     C      0.598030000000     0.956870000000     0.741250000000    -0.0199921  
C195     C      0.612650000000     0.956350000000     0.772220000000    -0.0205212  
C196     C      0.609850000000     0.975820000000     0.765690000000     0.0137764  
C197     C      0.601490000000     0.976000000000     0.748030000000     0.0144538  
C198     C      0.597070000000     0.992620000000     0.738830000000    -0.065123   
C199     C      0.598050000000     0.028360000000     0.741640000000    -0.0201526  
C200     C      0.614310000000     0.992420000000     0.775110000000    -0.0641092  
C201     C      0.601520000000     0.009150000000     0.748210000000     0.014341   
C202     C      0.609940000000     0.009130000000     0.765840000000     0.0136339  
C203     C      0.461100000000     0.098280000000     0.771690000000    -0.0201078  
C204     C      0.533920000000     0.109200000000     0.739330000000    -0.0205334  
C205     C      0.533470000000     0.098200000000     0.771710000000    -0.0200263  
C206     C      0.514090000000     0.101300000000     0.764790000000     0.0145639  
C207     C      0.514200000000     0.107540000000     0.746310000000     0.0135912  
C208     C      0.497310000000     0.110820000000     0.736510000000    -0.0641417  
C209     C      0.460700000000     0.109280000000     0.739300000000    -0.0206641  
C210     C      0.497290000000     0.097980000000     0.774500000000    -0.0654114  
C211     C      0.480410000000     0.107570000000     0.746300000000     0.0136459  
C212     C      0.480500000000     0.101330000000     0.764780000000     0.014547   
C213     C      0.381750000000     0.956560000000     0.772100000000    -0.0204925  
C214     C      0.396450000000     0.028560000000     0.741550000000    -0.0201573  
C215     C      0.381610000000     0.028730000000     0.772430000000    -0.0204948  
C216     C      0.384520000000     0.009340000000     0.765730000000     0.01359    
C217     C      0.392950000000     0.009350000000     0.748110000000     0.0143943  
C218     C      0.397390000000     0.992830000000     0.738730000000    -0.065163   
C219     C      0.396390000000     0.957070000000     0.741140000000    -0.019924   
C220     C      0.380120000000     0.992630000000     0.775000000000    -0.0640808  
C221     C      0.392950000000     0.976200000000     0.747930000000     0.0144135  
C222     C      0.384580000000     0.976030000000     0.765580000000     0.0137666  
C223     C      0.533740000000     0.877150000000     0.738120000000    -0.020558   
C224     C      0.460940000000     0.887920000000     0.770570000000    -0.0201684  
C225     C      0.460600000000     0.877250000000     0.738070000000    -0.0205136  
C226     C      0.480280000000     0.878920000000     0.745100000000     0.0138015  
C227     C      0.480360000000     0.884990000000     0.763640000000     0.014541   
C228     C      0.497160000000     0.888200000000     0.773410000000    -0.0652875  
C229     C      0.533390000000     0.887820000000     0.770620000000    -0.0199864  
C230     C      0.497170000000     0.875730000000     0.735290000000    -0.064212   
C231     C      0.513960000000     0.884950000000     0.763670000000     0.0144785  
C232     C      0.514050000000     0.878880000000     0.745120000000     0.0138365  
C233     C      0.765740000000     0.956780000000     0.388460000000    -0.0206301  
C234     C      0.733530000000     0.028440000000     0.401270000000    -0.0199726  
C235     C      0.765290000000     0.028980000000     0.388420000000    -0.0205     
C236     C      0.758630000000     0.009500000000     0.390860000000     0.0135862  
C237     C      0.740520000000     0.009310000000     0.398180000000     0.0143653  
C238     C      0.731090000000     0.992680000000     0.402080000000    -0.0651967  
C239     C      0.733990000000     0.956970000000     0.401350000000    -0.020121   
C240     C      0.768330000000     0.992900000000     0.387010000000    -0.0639561  
C241     C      0.740730000000     0.976170000000     0.398220000000     0.0145636  
C242     C      0.758850000000     0.976180000000     0.390890000000     0.0137061  
C243     C      0.637930000000     0.111180000000     0.697360000000    -0.0205795  
C244     C      0.712540000000     0.102590000000     0.668590000000    -0.0200563  
C245     C      0.689050000000     0.111130000000     0.645210000000    -0.0206953  
C246     C      0.680480000000     0.110250000000     0.664310000000     0.0140455  
C247     C      0.693940000000     0.105390000000     0.677590000000     0.0142961  
C248     C      0.689260000000     0.102740000000     0.696550000000    -0.0649369  
C249     C      0.661740000000     0.102530000000     0.720360000000    -0.0200343  
C250     C      0.661520000000     0.112770000000     0.669360000000    -0.0643067  
C251     C      0.670390000000     0.105360000000     0.701600000000     0.0143091  
C252     C      0.656850000000     0.110260000000     0.688410000000     0.0140169  
C253     C      0.730310000000     0.107480000000     0.466900000000    -0.0204595  
C254     C      0.762730000000     0.096550000000     0.539700000000    -0.0200735  
C255     C      0.730290000000     0.107430000000     0.540070000000    -0.0206561  
C256     C      0.737260000000     0.105610000000     0.520370000000     0.0137656  
C257     C      0.755760000000     0.099420000000     0.520280000000     0.0144892  
C258     C      0.765500000000     0.096140000000     0.503490000000    -0.0652323  
C259     C      0.762740000000     0.096600000000     0.467280000000    -0.01997    
C260     C      0.727460000000     0.108860000000     0.503490000000    -0.064155   
C261     C      0.755770000000     0.099440000000     0.486690000000     0.0144698  
C262     C      0.737260000000     0.105630000000     0.486600000000     0.0136966  
C263     C      0.689840000000     0.874330000000     0.644460000000    -0.0204211  
C264     C      0.661820000000     0.882490000000     0.719360000000    -0.0202445  
C265     C      0.638130000000     0.874440000000     0.695990000000    -0.0205873  
C266     C      0.657170000000     0.875150000000     0.687280000000     0.0139619  
C267     C      0.670630000000     0.879720000000     0.700670000000     0.0145309  
C268     C      0.689590000000     0.882150000000     0.695880000000    -0.0652265  
C269     C      0.713170000000     0.882350000000     0.668190000000    -0.0203568  
C270     C      0.662020000000     0.872780000000     0.668260000000    -0.0642052  
C271     C      0.694440000000     0.879660000000     0.676940000000     0.0145711  
C272     C      0.681070000000     0.875100000000     0.663460000000     0.0139108  
C273     C      0.731880000000     0.877700000000     0.540110000000    -0.0205731  
C274     C      0.764210000000     0.888900000000     0.467340000000    -0.0201072  
C275     C      0.731870000000     0.877720000000     0.466990000000    -0.0204851  
C276     C      0.738850000000     0.879580000000     0.486670000000     0.0137761  
C277     C      0.757300000000     0.885930000000     0.486750000000     0.0145196  
C278     C      0.767010000000     0.889310000000     0.503550000000    -0.0653105  
C279     C      0.764220000000     0.888870000000     0.539760000000    -0.0199959  
C280     C      0.729070000000     0.876250000000     0.503550000000    -0.0641917  
C281     C      0.757300000000     0.885930000000     0.520340000000     0.0144946  
C282     C      0.738850000000     0.879570000000     0.520430000000     0.013805   
C283     C      0.734000000000     0.956900000000     0.605760000000    -0.0200235  
C284     C      0.765290000000     0.028930000000     0.618610000000    -0.0204872  
C285     C      0.733530000000     0.028360000000     0.605760000000    -0.0202027  
C286     C      0.740520000000     0.009250000000     0.608870000000     0.0144707  
C287     C      0.758640000000     0.009440000000     0.616190000000     0.0135448  
C288     C      0.768340000000     0.992850000000     0.620050000000    -0.0639035  
C289     C      0.765750000000     0.956720000000     0.618640000000    -0.0204373  
C290     C      0.731090000000     0.992610000000     0.605000000000    -0.065227   
C291     C      0.758850000000     0.976120000000     0.616200000000     0.0136209  
C292     C      0.740740000000     0.976100000000     0.608870000000     0.0145649  
C293     C      0.832900000000     0.206880000000     0.616760000000    -0.0201363  
C294     C      0.805950000000     0.132480000000     0.624190000000    -0.0205754  
C295     C      0.782150000000     0.155760000000     0.617080000000    -0.0202673  
C296     C      0.800810000000     0.164590000000     0.619670000000     0.0143774  
C297     C      0.814440000000     0.151370000000     0.623710000000     0.0140507  
C298     C      0.833490000000     0.156290000000     0.625720000000    -0.0644219  
C299     C      0.857020000000     0.183950000000     0.623980000000    -0.0207771  
C300     C      0.805390000000     0.183380000000     0.617380000000    -0.0649641  
C301     C      0.838050000000     0.175160000000     0.623580000000     0.0141482  
C302     C      0.824350000000     0.188300000000     0.619510000000     0.0143069  
C303     C      0.960760000000     0.226120000000     0.620130000000    -0.0205967  
C304     C      0.033540000000     0.257660000000     0.607620000000    -0.0200267  
C305     C      0.033910000000     0.226190000000     0.620130000000    -0.020707   
C306     C      0.014210000000     0.232960000000     0.617940000000     0.0137599  
C307     C      0.014120000000     0.250920000000     0.610820000000     0.0142502  
C308     C      0.997300000000     0.260340000000     0.607030000000    -0.0650299  
C309     C      0.961070000000     0.257590000000     0.607610000000    -0.0202297  
C310     C      0.997340000000     0.223440000000     0.621670000000    -0.0641169  
C311     C      0.980510000000     0.250880000000     0.610810000000     0.0144914  
C312     C      0.980440000000     0.232930000000     0.617930000000     0.0138025  
C313     C      0.832900000000     0.206940000000     0.390050000000    -0.0203339  
C314     C      0.805950000000     0.132530000000     0.382740000000    -0.0204604  
C315     C      0.782160000000     0.155820000000     0.389850000000    -0.0204668  
C316     C      0.800820000000     0.164650000000     0.387230000000     0.0145569  
C317     C      0.814450000000     0.151420000000     0.383180000000     0.013919   
C318     C      0.833490000000     0.156340000000     0.381150000000    -0.0643017  
C319     C      0.857020000000     0.184010000000     0.382840000000    -0.0205329  
C320     C      0.805390000000     0.183440000000     0.389490000000    -0.0651602  
C321     C      0.838060000000     0.175220000000     0.383260000000     0.0139752  
C322     C      0.824350000000     0.188360000000     0.387330000000     0.0144726  
C323     C      0.881070000000     0.258780000000     0.466830000000    -0.0205273  
C324     C      0.894210000000     0.227540000000     0.539610000000    -0.0201044  
C325     C      0.881050000000     0.258750000000     0.539960000000    -0.0206371  
C326     C      0.883460000000     0.252040000000     0.520270000000     0.0138461  
C327     C      0.890960000000     0.234240000000     0.520190000000     0.0144558  
C328     C      0.894940000000     0.224870000000     0.503380000000    -0.0653318  
C329     C      0.894240000000     0.227570000000     0.467160000000    -0.0201411  
C330     C      0.879530000000     0.261480000000     0.503400000000    -0.0642714  
C331     C      0.890970000000     0.234250000000     0.486590000000     0.0145176  
C332     C      0.883470000000     0.252050000000     0.486510000000     0.0137704  
C333     C      0.961070000000     0.257670000000     0.399140000000    -0.0201911  
C334     C      0.033920000000     0.226320000000     0.386550000000    -0.0205207  
C335     C      0.033550000000     0.257780000000     0.399080000000    -0.0201443  
C336     C      0.014120000000     0.251020000000     0.395890000000     0.0143363  
C337     C      0.014220000000     0.233080000000     0.388760000000     0.0136517  
C338     C      0.997350000000     0.223540000000     0.385030000000    -0.0640993  
C339     C      0.960770000000     0.226210000000     0.386610000000    -0.0205066  
C340     C      0.997310000000     0.260440000000     0.399690000000    -0.0650639  
C341     C      0.980450000000     0.233030000000     0.388790000000     0.013775   
C342     C      0.980510000000     0.250970000000     0.395920000000     0.0144623  
C343     C      0.113540000000     0.259020000000     0.466790000000    -0.0207121  
C344     C      0.100410000000     0.227750000000     0.539560000000    -0.0199677  
C345     C      0.113540000000     0.258970000000     0.539920000000    -0.0206602  
C346     C      0.111140000000     0.252260000000     0.520230000000     0.0138874  
C347     C      0.103660000000     0.234450000000     0.520140000000     0.0143602  
C348     C      0.099690000000     0.225090000000     0.503330000000    -0.0652155  
C349     C      0.100400000000     0.227800000000     0.467110000000    -0.0199827  
C350     C      0.115070000000     0.261710000000     0.503360000000    -0.0643231  
C351     C      0.103650000000     0.234480000000     0.486540000000     0.0143905  
C352     C      0.111130000000     0.252290000000     0.486470000000     0.0138751  
C353     C      0.188730000000     0.132690000000     0.624060000000    -0.0205684  
C354     C      0.161770000000     0.207080000000     0.616660000000    -0.0202528  
C355     C      0.137660000000     0.184150000000     0.623910000000    -0.0206778  
C356     C      0.156630000000     0.175370000000     0.623500000000     0.0140459  
C357     C      0.170320000000     0.188510000000     0.619410000000     0.0143887  
C358     C      0.189280000000     0.183590000000     0.617240000000    -0.065009   
C359     C      0.212520000000     0.155960000000     0.616910000000    -0.0202046  
C360     C      0.161200000000     0.156490000000     0.625620000000    -0.064353   
C361     C      0.193860000000     0.164800000000     0.619510000000     0.0143612  
C362     C      0.180230000000     0.151570000000     0.623580000000     0.0140537  
C363     C      0.282110000000     0.102800000000     0.668460000000    -0.0201192  
C364     C      0.356710000000     0.111420000000     0.697270000000    -0.0206985  
C365     C      0.332860000000     0.102800000000     0.720270000000    -0.0203558  
C366     C      0.324240000000     0.105630000000     0.701500000000     0.0144401  
C367     C      0.337780000000     0.110500000000     0.688310000000     0.0140164  
C368     C      0.333130000000     0.112970000000     0.669250000000    -0.0643571  
C369     C      0.305620000000     0.111300000000     0.645090000000    -0.0207391  
C370     C      0.305360000000     0.103000000000     0.696440000000    -0.0650861  
C371     C      0.314180000000     0.110440000000     0.664190000000     0.0140601  
C372     C      0.300710000000     0.105600000000     0.677470000000     0.0143636  
C373     C      0.281200000000     0.882570000000     0.668020000000    -0.0200613  
C374     C      0.356230000000     0.874680000000     0.695850000000    -0.0206093  
C375     C      0.332530000000     0.882740000000     0.719200000000    -0.0201564  
C376     C      0.323730000000     0.879960000000     0.700520000000     0.0144303  
C377     C      0.337190000000     0.875390000000     0.687130000000     0.014064   
C378     C      0.332350000000     0.873000000000     0.668110000000    -0.0644041  
C379     C      0.304530000000     0.874530000000     0.644300000000    -0.0206136  
C380     C      0.304770000000     0.882390000000     0.695720000000    -0.0650823  
C381     C      0.313300000000     0.875320000000     0.663310000000     0.0140732  
C382     C      0.299920000000     0.879880000000     0.676780000000     0.014379   
C383     C      0.228700000000     0.956940000000     0.618450000000    -0.0205776  
C384     C      0.261040000000     0.028540000000     0.605620000000    -0.0199262  
C385     C      0.229290000000     0.029140000000     0.618470000000    -0.0205436  
C386     C      0.235910000000     0.009650000000     0.616040000000     0.0136207  
C387     C      0.254020000000     0.009430000000     0.608720000000     0.0143083  
C388     C      0.263420000000     0.992780000000     0.604830000000    -0.0650798  
C389     C      0.260460000000     0.957070000000     0.605570000000    -0.0201913  
C390     C      0.226180000000     0.993070000000     0.619890000000    -0.0639666  
C391     C      0.253750000000     0.976280000000     0.608690000000     0.0145359  
C392     C      0.235640000000     0.976330000000     0.616030000000     0.0137032  
C393     C      0.262430000000     0.877920000000     0.466820000000    -0.0205367  
C394     C      0.230110000000     0.889050000000     0.539600000000    -0.0200909  
C395     C      0.262440000000     0.877860000000     0.539930000000    -0.0204971  
C396     C      0.255470000000     0.879740000000     0.520250000000     0.0137976  
C397     C      0.237020000000     0.886100000000     0.520180000000     0.0145079  
C398     C      0.227310000000     0.889500000000     0.503390000000    -0.0652855  
C399     C      0.230090000000     0.889110000000     0.467180000000    -0.0200704  
C400     C      0.265240000000     0.876420000000     0.503370000000    -0.0642443  
C401     C      0.237010000000     0.886140000000     0.486590000000     0.0145101  
C402     C      0.255460000000     0.879770000000     0.486500000000     0.0138308  
C403     C      0.161780000000     0.207210000000     0.390030000000    -0.0201955  
C404     C      0.188750000000     0.132820000000     0.382600000000    -0.0206166  
C405     C      0.212530000000     0.156100000000     0.389780000000    -0.0202333  
C406     C      0.193880000000     0.164930000000     0.387160000000     0.0143984  
C407     C      0.180260000000     0.151720000000     0.383070000000     0.0140438  
C408     C      0.161220000000     0.156630000000     0.381030000000    -0.0643476  
C409     C      0.137680000000     0.184290000000     0.382750000000    -0.0206873  
C410     C      0.189300000000     0.183720000000     0.389460000000    -0.0650497  
C411     C      0.156640000000     0.175500000000     0.383180000000     0.0140524  
C412     C      0.170340000000     0.188640000000     0.387290000000     0.0143698  
C413     C      0.260400000000     0.957200000000     0.401230000000    -0.0200317  
C414     C      0.229280000000     0.029270000000     0.388240000000    -0.0204385  
C415     C      0.261030000000     0.028670000000     0.401110000000    -0.0200683  
C416     C      0.254000000000     0.009560000000     0.398030000000     0.0143716  
C417     C      0.235890000000     0.009780000000     0.390700000000     0.0135828  
C418     C      0.226150000000     0.993200000000     0.386860000000    -0.0639818  
C419     C      0.228660000000     0.957070000000     0.388330000000    -0.0204151  
C420     C      0.263380000000     0.992910000000     0.401940000000    -0.0650915  
C421     C      0.235590000000     0.976460000000     0.390750000000     0.0136694  
C422     C      0.253700000000     0.976410000000     0.398090000000     0.0145027  
C423     C      0.264390000000     0.107680000000     0.466770000000    -0.0206032  
C424     C      0.231950000000     0.096750000000     0.539560000000    -0.0200591  
C425     C      0.264390000000     0.107610000000     0.539940000000    -0.0204642  
C426     C      0.257430000000     0.105800000000     0.520240000000     0.0136938  
C427     C      0.238920000000     0.099620000000     0.520150000000     0.0145142  
C428     C      0.229180000000     0.096360000000     0.503350000000    -0.0652774  
C429     C      0.231940000000     0.096830000000     0.467140000000    -0.0200929  
C430     C      0.267240000000     0.109050000000     0.503360000000    -0.0641572  
C431     C      0.238920000000     0.099650000000     0.486550000000     0.0145047  
C432     C      0.257430000000     0.105830000000     0.486470000000     0.0137236  
C433     C      0.960960000000     0.596930000000     0.736020000000    -0.0202433  
C434     C      0.033750000000     0.607530000000     0.768530000000    -0.020411   
C435     C      0.033400000000     0.597000000000     0.735980000000    -0.0201765  
C436     C      0.013980000000     0.599900000000     0.742940000000     0.0143839  
C437     C      0.014060000000     0.605880000000     0.761500000000     0.0136088  
C438     C      0.997180000000     0.608990000000     0.771350000000    -0.0640065  
C439     C      0.960610000000     0.607460000000     0.768570000000    -0.0204485  
C440     C      0.997170000000     0.596690000000     0.733180000000    -0.0651069  
C441     C      0.980300000000     0.605840000000     0.761520000000     0.0137317  
C442     C      0.980380000000     0.599860000000     0.742960000000     0.0145828  
C443     C      0.882850000000     0.328700000000     0.718620000000    -0.0202719  
C444     C      0.876380000000     0.300670000000     0.643680000000    -0.0206622  
C445     C      0.883090000000     0.277630000000     0.667830000000    -0.0203756  
C446     C      0.880400000000     0.296220000000     0.676380000000     0.0144089  
C447     C      0.876610000000     0.309420000000     0.662660000000     0.0140992  
C448     C      0.874660000000     0.328310000000     0.667220000000    -0.0644629  
C449     C      0.876240000000     0.352080000000     0.694780000000    -0.0206189  
C450     C      0.882410000000     0.301090000000     0.695360000000    -0.0650077  
C451     C      0.876540000000     0.333180000000     0.686280000000     0.0140997  
C452     C      0.880300000000     0.319900000000     0.699940000000     0.0143653  
C453     C      0.882760000000     0.527680000000     0.734750000000    -0.0203919  
C454     C      0.896310000000     0.456050000000     0.766720000000    -0.0200562  
C455     C      0.882780000000     0.455480000000     0.735260000000    -0.0205079  
C456     C      0.885430000000     0.474960000000     0.741810000000     0.0137106  
C457     C      0.893140000000     0.475170000000     0.759760000000     0.0145129  
C458     C      0.897230000000     0.491810000000     0.769080000000    -0.0652791  
C459     C      0.896330000000     0.527530000000     0.766200000000    -0.0201431  
C460     C      0.881360000000     0.491560000000     0.732190000000    -0.0641211  
C461     C      0.893160000000     0.508320000000     0.759510000000     0.0145375  
C462     C      0.885430000000     0.508280000000     0.741570000000     0.0136763  
C463     C      0.118240000000     0.300860000000     0.643640000000    -0.0205023  
C464     C      0.111880000000     0.328870000000     0.718590000000    -0.0202501  
C465     C      0.118440000000     0.352250000000     0.694750000000    -0.0205282  
C466     C      0.118150000000     0.333360000000     0.686250000000     0.0140186  
C467     C      0.114410000000     0.320080000000     0.699900000000     0.0143689  
C468     C      0.112280000000     0.301270000000     0.695320000000    -0.064971   
C469     C      0.111570000000     0.277820000000     0.667780000000    -0.0201751  
C470     C      0.119980000000     0.328490000000     0.667180000000    -0.0643797  
C471     C      0.114250000000     0.296400000000     0.676340000000     0.0143422  
C472     C      0.118020000000     0.309600000000     0.662610000000     0.0140483  
C473     C      0.033950000000     0.376520000000     0.770320000000    -0.020477   
C474     C      0.961120000000     0.386660000000     0.737680000000    -0.0200272  
C475     C      0.960750000000     0.376450000000     0.770330000000    -0.0206741  
C476     C      0.980450000000     0.378080000000     0.763300000000     0.0137211  
C477     C      0.980540000000     0.383880000000     0.744680000000     0.0145105  
C478     C      0.997340000000     0.386990000000     0.734880000000    -0.0651741  
C479     C      0.033560000000     0.386730000000     0.737670000000    -0.0201805  
C480     C      0.997350000000     0.375070000000     0.773170000000    -0.0639183  
C481     C      0.014140000000     0.383920000000     0.744680000000     0.0144571  
C482     C      0.014240000000     0.378120000000     0.763300000000     0.0135075  
C483     C      0.111690000000     0.527840000000     0.734670000000    -0.0206224  
C484     C      0.098290000000     0.456210000000     0.766690000000    -0.0201016  
C485     C      0.111810000000     0.455640000000     0.735220000000    -0.020658   
C486     C      0.109120000000     0.475120000000     0.741770000000     0.0137925  
C487     C      0.101410000000     0.475330000000     0.759720000000     0.0145147  
C488     C      0.097300000000     0.491960000000     0.769030000000    -0.0652934  
C489     C      0.098130000000     0.527680000000     0.766130000000    -0.0200591  
C490     C      0.113160000000     0.491720000000     0.732130000000    -0.0642642  
C491     C      0.101340000000     0.508480000000     0.759450000000     0.014456   
C492     C      0.109060000000     0.508440000000     0.741510000000     0.0137957  
C493     C      0.161180000000     0.778370000000     0.389660000000    -0.0203238  
C494     C      0.187410000000     0.853050000000     0.382480000000    -0.0206217  
C495     C      0.211430000000     0.829930000000     0.389360000000    -0.0201885  
C496     C      0.192850000000     0.820950000000     0.386770000000     0.014441   
C497     C      0.179080000000     0.834080000000     0.382860000000     0.0140022  
C498     C      0.160070000000     0.829000000000     0.380930000000    -0.0643543  
C499     C      0.136810000000     0.801100000000     0.382670000000    -0.0203859  
C500     C      0.188460000000     0.802110000000     0.388990000000    -0.0651175  
C501     C      0.155690000000     0.810070000000     0.382990000000     0.0139208  
C502     C      0.169540000000     0.797030000000     0.386930000000     0.0145047  
C503     C      0.857440000000     0.800820000000     0.382750000000    -0.0205094  
C504     C      0.782840000000     0.829650000000     0.389590000000    -0.0201815  
C505     C      0.806840000000     0.852750000000     0.382610000000    -0.0204875  
C506     C      0.815170000000     0.833780000000     0.383000000000     0.0139367  
C507     C      0.801410000000     0.820660000000     0.386970000000     0.0144572  
C508     C      0.805810000000     0.801830000000     0.389200000000    -0.065105   
C509     C      0.833090000000     0.778090000000     0.389830000000    -0.0203705  
C510     C      0.834170000000     0.828700000000     0.381030000000    -0.0642156  
C511     C      0.824720000000     0.796750000000     0.387100000000     0.0145214  
C512     C      0.838560000000     0.809780000000     0.383100000000     0.0139386  
C513     C      0.960570000000     0.758150000000     0.386330000000    -0.020477   
C514     C      0.033420000000     0.726930000000     0.399210000000    -0.0201018  
C515     C      0.033700000000     0.758250000000     0.386320000000    -0.0205144  
C516     C      0.014030000000     0.751440000000     0.388570000000     0.0136748  
C517     C      0.013970000000     0.733570000000     0.395910000000     0.0143139  
C518     C      0.997180000000     0.724150000000     0.399810000000    -0.0651031  
C519     C      0.960940000000     0.726830000000     0.399220000000    -0.0202092  
C520     C      0.997130000000     0.760880000000     0.384730000000    -0.0640725  
C521     C      0.980360000000     0.733530000000     0.395920000000     0.0144948  
C522     C      0.980260000000     0.751400000000     0.388580000000     0.0137927  
C523     C      0.187470000000     0.852910000000     0.624310000000    -0.0206433  
C524     C      0.161240000000     0.778230000000     0.617170000000    -0.0202688  
C525     C      0.136880000000     0.800960000000     0.624210000000    -0.0205512  
C526     C      0.155760000000     0.809920000000     0.623880000000     0.0139449  
C527     C      0.169600000000     0.796890000000     0.619900000000     0.0144961  
C528     C      0.188520000000     0.801970000000     0.617780000000    -0.0651596  
C529     C      0.211480000000     0.829800000000     0.617360000000    -0.0200993  
C530     C      0.160150000000     0.828850000000     0.625920000000    -0.0642721  
C531     C      0.192910000000     0.820810000000     0.619980000000     0.0144221  
C532     C      0.179150000000     0.833930000000     0.623930000000     0.0140135  
C533     C      0.111910000000     0.706460000000     0.667450000000    -0.0201264  
C534     C      0.118480000000     0.631720000000     0.693640000000    -0.0205856  
C535     C      0.112140000000     0.654930000000     0.717720000000    -0.0202883  
C536     C      0.114690000000     0.663880000000     0.699120000000     0.0144276  
C537     C      0.118300000000     0.650700000000     0.685320000000     0.0140157  
C538     C      0.120080000000     0.655750000000     0.666300000000    -0.0643633  
C539     C      0.118350000000     0.683620000000     0.643040000000    -0.0206244  
C540     C      0.112650000000     0.682740000000     0.694740000000    -0.065025   
C541     C      0.118200000000     0.674690000000     0.661930000000     0.014064   
C542     C      0.114580000000     0.687780000000     0.675800000000     0.0143713  
C543     C      0.100160000000     0.757350000000     0.467210000000    -0.0200805  
C544     C      0.113760000000     0.726270000000     0.539980000000    -0.0206788  
C545     C      0.100160000000     0.757300000000     0.539680000000    -0.0200116  
C546     C      0.103530000000     0.750680000000     0.520240000000     0.0143831  
C547     C      0.111270000000     0.732980000000     0.520300000000     0.0138939  
C548     C      0.115340000000     0.723620000000     0.503420000000    -0.0643271  
C549     C      0.113750000000     0.726320000000     0.466870000000    -0.02051    
C550     C      0.099420000000     0.760010000000     0.503450000000    -0.0652296  
C551     C      0.111270000000     0.733000000000     0.486550000000     0.0138504  
C552     C      0.103520000000     0.750710000000     0.486640000000     0.014408   
C553     C      0.833140000000     0.778040000000     0.617230000000    -0.0202781  
C554     C      0.806890000000     0.852700000000     0.624460000000    -0.0206375  
C555     C      0.782880000000     0.829590000000     0.617490000000    -0.0202636  
C556     C      0.801460000000     0.820610000000     0.620100000000     0.014428   
C557     C      0.815220000000     0.833720000000     0.624070000000     0.0140274  
C558     C      0.834220000000     0.828650000000     0.626040000000    -0.064313   
C559     C      0.857490000000     0.800760000000     0.624300000000    -0.0204796  
C560     C      0.805860000000     0.801770000000     0.617870000000    -0.0650755  
C561     C      0.838610000000     0.809720000000     0.623960000000     0.0139338  
C562     C      0.824780000000     0.796690000000     0.619970000000     0.0144789  
C563     C      0.876060000000     0.683440000000     0.643110000000    -0.0207321  
C564     C      0.882180000000     0.654760000000     0.717800000000    -0.0201767  
C565     C      0.875860000000     0.631560000000     0.693720000000    -0.020593   
C566     C      0.876050000000     0.650530000000     0.685400000000     0.0140736  
C567     C      0.879640000000     0.663710000000     0.699200000000     0.0143593  
C568     C      0.881700000000     0.682570000000     0.694820000000    -0.0649663  
C569     C      0.882480000000     0.706280000000     0.667530000000    -0.0202658  
C570     C      0.874300000000     0.655570000000     0.666380000000    -0.0643863  
C571     C      0.879800000000     0.687610000000     0.675880000000     0.0144072  
C572     C      0.876180000000     0.674520000000     0.662000000000     0.0140714  
C573     C      0.894220000000     0.757120000000     0.467280000000    -0.0201759  
C574     C      0.880650000000     0.726060000000     0.540050000000    -0.0205892  
C575     C      0.894230000000     0.757100000000     0.539740000000    -0.020061   
C576     C      0.890860000000     0.750470000000     0.520310000000     0.014436   
C577     C      0.883130000000     0.732760000000     0.520380000000     0.0138499  
C578     C      0.879070000000     0.723390000000     0.503500000000    -0.0642467  
C579     C      0.880640000000     0.726080000000     0.466950000000    -0.0205107  
C580     C      0.894960000000     0.759790000000     0.503510000000    -0.0652235  
C581     C      0.883130000000     0.732770000000     0.486630000000     0.013824   
C582     C      0.890860000000     0.750480000000     0.486710000000     0.0144744  
C583     C      0.960620000000     0.758070000000     0.620660000000    -0.0206743  
C584     C      0.033450000000     0.726830000000     0.607700000000    -0.0201041  
C585     C      0.033760000000     0.758140000000     0.620620000000    -0.0205769  
C586     C      0.014080000000     0.751340000000     0.618370000000     0.0137428  
C587     C      0.014010000000     0.733480000000     0.611020000000     0.014277   
C588     C      0.997220000000     0.724060000000     0.607130000000    -0.0649787  
C589     C      0.960970000000     0.726760000000     0.607750000000    -0.0199678  
C590     C      0.997190000000     0.760790000000     0.622240000000    -0.0642202  
C591     C      0.980400000000     0.733450000000     0.611040000000     0.0143164  
C592     C      0.980310000000     0.751310000000     0.618390000000     0.0139175  
C593     C      0.214190000000     0.382960000000     0.839070000000    -0.0201612  
C594     C      0.139130000000     0.373780000000     0.811640000000    -0.0204634  
C595     C      0.162410000000     0.382900000000     0.788290000000    -0.020114   
C596     C      0.171430000000     0.380030000000     0.806860000000     0.0143812  
C597     C      0.158210000000     0.374840000000     0.820240000000     0.013913   
C598     C      0.163290000000     0.372140000000     0.839170000000    -0.0643153  
C599     C      0.191290000000     0.373730000000     0.862770000000    -0.0207049  
C600     C      0.190370000000     0.382850000000     0.811570000000    -0.0650677  
C601     C      0.182320000000     0.374830000000     0.843870000000     0.0140148  
C602     C      0.195450000000     0.380060000000     0.830400000000     0.0143958  
C603     C      0.265890000000     0.385570000000     0.039530000000    -0.0200926  
C604     C      0.233230000000     0.375240000000     0.966790000000    -0.0207211  
C605     C      0.265880000000     0.385490000000     0.967200000000    -0.0200022  
C606     C      0.258920000000     0.382520000000     0.986580000000     0.0143808  
C607     C      0.240290000000     0.376700000000     0.986490000000     0.0135489  
C608     C      0.230410000000     0.373690000000     0.003380000000    -0.0640248  
C609     C      0.233240000000     0.375310000000     0.039970000000    -0.0207229  
C610     C      0.268720000000     0.385650000000     0.003360000000    -0.0652086  
C611     C      0.240290000000     0.376740000000     0.020260000000     0.0136786  
C612     C      0.258920000000     0.382560000000     0.020160000000     0.0145146  
C613     C      0.266200000000     0.528560000000     0.118120000000    -0.020529   
C614     C      0.235950000000     0.456520000000     0.102990000000    -0.0200877  
C615     C      0.266600000000     0.456390000000     0.118310000000    -0.0205346  
C616     C      0.259960000000     0.475780000000     0.115200000000     0.0137606  
C617     C      0.242460000000     0.475740000000     0.106510000000     0.0144793  
C618     C      0.233140000000     0.492250000000     0.101920000000    -0.0652814  
C619     C      0.235450000000     0.528010000000     0.103010000000    -0.0201552  
C620     C      0.269140000000     0.492490000000     0.119740000000    -0.0642118  
C621     C      0.242250000000     0.508890000000     0.106490000000     0.0145012  
C622     C      0.259770000000     0.509090000000     0.115130000000     0.0137366  
C623     C      0.212920000000     0.601220000000     0.838870000000    -0.0202106  
C624     C      0.138110000000     0.609920000000     0.810710000000    -0.0206653  
C625     C      0.161760000000     0.601290000000     0.787520000000    -0.0200498  
C626     C      0.170530000000     0.604070000000     0.806220000000     0.0143739  
C627     C      0.157100000000     0.608970000000     0.819510000000     0.0140821  
C628     C      0.161910000000     0.611480000000     0.838530000000    -0.0644172  
C629     C      0.189650000000     0.609870000000     0.862430000000    -0.0204994  
C630     C      0.189440000000     0.601410000000     0.811110000000    -0.0650647  
C631     C      0.180910000000     0.608930000000     0.843420000000     0.0139824  
C632     C      0.194250000000     0.604020000000     0.830040000000     0.0144514  
C633     C      0.266210000000     0.528420000000     0.888650000000    -0.0206031  
C634     C      0.235920000000     0.456390000000     0.903740000000    -0.0201988  
C635     C      0.266570000000     0.456250000000     0.888420000000    -0.0205285  
C636     C      0.259940000000     0.475640000000     0.891530000000     0.0137797  
C637     C      0.242450000000     0.475600000000     0.900240000000     0.0144785  
C638     C      0.233130000000     0.492120000000     0.904840000000    -0.0652702  
C639     C      0.235470000000     0.527880000000     0.903780000000    -0.0200815  
C640     C      0.269130000000     0.492350000000     0.887000000000    -0.0643264  
C641     C      0.242250000000     0.508750000000     0.900280000000     0.0144507  
C642     C      0.259770000000     0.508950000000     0.891630000000     0.0138031  
C643     C      0.231850000000     0.608210000000     0.966810000000    -0.0204451  
C644     C      0.264590000000     0.598300000000     0.039590000000    -0.0200495  
C645     C      0.231850000000     0.608280000000     0.039930000000    -0.0204535  
C646     C      0.238930000000     0.606790000000     0.020250000000     0.0137586  
C647     C      0.257610000000     0.601120000000     0.020170000000     0.0144968  
C648     C      0.267430000000     0.598080000000     0.003380000000    -0.065093   
C649     C      0.264590000000     0.598230000000     0.967170000000    -0.0200566  
C650     C      0.229030000000     0.609730000000     0.003370000000    -0.0639696  
C651     C      0.257600000000     0.601080000000     0.986580000000     0.0143703  
C652     C      0.238930000000     0.606750000000     0.986490000000     0.0136023  
C653     C      0.161780000000     0.601530000000     0.219250000000    -0.0202269  
C654     C      0.189630000000     0.610040000000     0.144320000000    -0.0206836  
C655     C      0.212920000000     0.601430000000     0.167880000000    -0.0200396  
C656     C      0.194250000000     0.604250000000     0.176720000000     0.0143621  
C657     C      0.180900000000     0.609130000000     0.163340000000     0.0140783  
C658     C      0.161910000000     0.611670000000     0.168230000000    -0.0643507  
C659     C      0.138110000000     0.610120000000     0.196060000000    -0.020539   
C660     C      0.189440000000     0.601640000000     0.195650000000    -0.0650525  
C661     C      0.157100000000     0.609170000000     0.187250000000     0.0139927  
C662     C      0.170530000000     0.604290000000     0.200550000000     0.0144652  
C663     C      0.118490000000     0.631920000000     0.313150000000    -0.0204409  
C664     C      0.111850000000     0.706620000000     0.339390000000    -0.0200797  
C665     C      0.118340000000     0.683790000000     0.363780000000    -0.0204629  
C666     C      0.118200000000     0.674870000000     0.344880000000     0.0139138  
C667     C      0.114540000000     0.687960000000     0.331020000000     0.0144303  
C668     C      0.112590000000     0.682930000000     0.312080000000    -0.0651403  
C669     C      0.112100000000     0.655120000000     0.289090000000    -0.0202715  
C670     C      0.120080000000     0.655920000000     0.340500000000    -0.0642318  
C671     C      0.114640000000     0.664070000000     0.307690000000     0.0144589  
C672     C      0.118280000000     0.650890000000     0.321480000000     0.0139413  
C673     C      0.882180000000     0.654870000000     0.289180000000    -0.0202981  
C674     C      0.876030000000     0.683510000000     0.363880000000    -0.0205587  
C675     C      0.882420000000     0.706360000000     0.339470000000    -0.0203088  
C676     C      0.879750000000     0.687700000000     0.331110000000     0.0144244  
C677     C      0.876150000000     0.674590000000     0.344980000000     0.0140178  
C678     C      0.874300000000     0.655650000000     0.340600000000    -0.064311   
C679     C      0.875890000000     0.631640000000     0.313250000000    -0.0205807  
C680     C      0.881670000000     0.682660000000     0.312170000000    -0.0649681  
C681     C      0.876080000000     0.650610000000     0.321580000000     0.0140163  
C682     C      0.879650000000     0.663800000000     0.307780000000     0.0144405  
C683     C      0.960990000000     0.597060000000     0.270870000000    -0.020084   
C684     C      0.033760000000     0.607700000000     0.238300000000    -0.0205259  
C685     C      0.033430000000     0.597140000000     0.270840000000    -0.0200476  
C686     C      0.014010000000     0.600040000000     0.263910000000     0.0143343  
C687     C      0.014080000000     0.606040000000     0.245340000000     0.0137039  
C688     C      0.997190000000     0.609150000000     0.235510000000    -0.0641128  
C689     C      0.960620000000     0.607620000000     0.238330000000    -0.0205081  
C690     C      0.997210000000     0.596820000000     0.273680000000    -0.0650898  
C691     C      0.980310000000     0.606000000000     0.245360000000     0.0138066  
C692     C      0.980400000000     0.600000000000     0.263920000000     0.0144906  
C693     C      0.882930000000     0.328810000000     0.288200000000    -0.0202264  
C694     C      0.876390000000     0.300740000000     0.363120000000    -0.0206378  
C695     C      0.883110000000     0.277720000000     0.338960000000    -0.0202626  
C696     C      0.880430000000     0.296310000000     0.330420000000     0.0143891  
C697     C      0.876640000000     0.309500000000     0.344140000000     0.0140644  
C698     C      0.874710000000     0.328400000000     0.339590000000    -0.0644089  
C699     C      0.876310000000     0.352180000000     0.312040000000    -0.0205915  
C700     C      0.882460000000     0.301190000000     0.311440000000    -0.0650462  
C701     C      0.876600000000     0.333280000000     0.320530000000     0.0140521  
C702     C      0.880360000000     0.320000000000     0.306880000000     0.0143867  
C703     C      0.896350000000     0.456180000000     0.240140000000    -0.0200907  
C704     C      0.882810000000     0.527790000000     0.272170000000    -0.0207088  
C705     C      0.896370000000     0.527660000000     0.240710000000    -0.0200086  
C706     C      0.893200000000     0.508450000000     0.247390000000     0.0144665  
C707     C      0.885480000000     0.508400000000     0.265330000000     0.013822   
C708     C      0.881410000000     0.491670000000     0.274710000000    -0.0642515  
C709     C      0.882840000000     0.455590000000     0.271610000000    -0.0205189  
C710     C      0.897270000000     0.491950000000     0.237800000000    -0.0652621  
C711     C      0.885480000000     0.475080000000     0.265070000000     0.0137552  
C712     C      0.893190000000     0.475300000000     0.247120000000     0.014478   
C713     C      0.111610000000     0.277980000000     0.338940000000    -0.0201948  
C714     C      0.118500000000     0.352430000000     0.312020000000    -0.0208492  
C715     C      0.111950000000     0.329060000000     0.288160000000    -0.0201401  
C716     C      0.114470000000     0.320250000000     0.306840000000     0.0142717  
C717     C      0.118200000000     0.333530000000     0.320510000000     0.0142058  
C718     C      0.120020000000     0.328660000000     0.339570000000    -0.0644965  
C719     C      0.118260000000     0.301010000000     0.363100000000    -0.0205959  
C720     C      0.112340000000     0.301440000000     0.311410000000    -0.0649986  
C721     C      0.118050000000     0.309770000000     0.344130000000     0.0140923  
C722     C      0.114300000000     0.296570000000     0.330390000000     0.0143496  
C723     C      0.162480000000     0.383110000000     0.218470000000    -0.0201713  
C724     C      0.191350000000     0.373880000000     0.143990000000    -0.0207079  
C725     C      0.214250000000     0.383120000000     0.167680000000    -0.0201009  
C726     C      0.195510000000     0.380220000000     0.176360000000     0.0143396  
C727     C      0.182380000000     0.374980000000     0.162900000000     0.0140497  
C728     C      0.163350000000     0.372310000000     0.167600000000    -0.0643785  
C729     C      0.139190000000     0.373970000000     0.195120000000    -0.0206925  
C730     C      0.190430000000     0.383030000000     0.195190000000    -0.0650344  
C731     C      0.158270000000     0.375040000000     0.186520000000     0.014034   
C732     C      0.171500000000     0.380240000000     0.199900000000     0.0143881  
C733     C      0.034020000000     0.376730000000     0.236460000000    -0.0205337  
C734     C      0.961190000000     0.386820000000     0.269140000000    -0.020179   
C735     C      0.960820000000     0.376610000000     0.236490000000    -0.0205366  
C736     C      0.980530000000     0.378250000000     0.243500000000     0.0137318  
C737     C      0.980610000000     0.384050000000     0.262130000000     0.014522   
C738     C      0.997410000000     0.387170000000     0.271920000000    -0.0650401  
C739     C      0.033630000000     0.386930000000     0.269110000000    -0.0200478  
C740     C      0.997420000000     0.375250000000     0.233620000000    -0.0640638  
C741     C      0.014220000000     0.384110000000     0.262110000000     0.0143262  
C742     C      0.014310000000     0.378310000000     0.243490000000     0.0136043  
C743     C      0.111890000000     0.455840000000     0.271550000000    -0.0204997  
C744     C      0.098210000000     0.527880000000     0.240630000000    -0.0201545  
C745     C      0.111760000000     0.528040000000     0.272090000000    -0.0204411  
C746     C      0.109140000000     0.508640000000     0.265260000000     0.0136539  
C747     C      0.101420000000     0.508680000000     0.247310000000     0.0146068  
C748     C      0.097380000000     0.492170000000     0.237730000000    -0.0654419  
C749     C      0.098370000000     0.456410000000     0.240080000000    -0.0201166  
C750     C      0.113240000000     0.491920000000     0.274630000000    -0.0641156  
C751     C      0.101490000000     0.475530000000     0.247050000000     0.0145552  
C752     C      0.109200000000     0.475330000000     0.265000000000     0.013704   
C753     C      0.610480000000     0.205090000000     0.843270000000    -0.019993   
C754     C      0.614540000000     0.130360000000     0.816520000000    -0.0206649  
C755     C      0.613940000000     0.154280000000     0.792340000000    -0.0204648  
C756     C      0.614240000000     0.162770000000     0.811330000000     0.0144799  
C757     C      0.614430000000     0.149180000000     0.825190000000     0.0138598  
C758     C      0.613360000000     0.153820000000     0.844370000000    -0.0643429  
C759     C      0.610230000000     0.181470000000     0.867780000000    -0.0202627  
C760     C      0.613210000000     0.181690000000     0.815820000000    -0.0651761  
C761     C      0.612370000000     0.172790000000     0.848880000000     0.0137788  
C762     C      0.612410000000     0.186320000000     0.834960000000     0.014567   
C763     C      0.622230000000     0.231140000000     0.967180000000    -0.0205426  
C764     C      0.591400000000     0.216480000000     0.039870000000    -0.0203885  
C765     C      0.622250000000     0.231140000000     0.039660000000    -0.0204989  
C766     C      0.616330000000     0.226340000000     0.020250000000     0.0143897  
C767     C      0.598710000000     0.218010000000     0.020300000000     0.013531   
C768     C      0.589340000000     0.213720000000     0.003430000000    -0.064091   
C769     C      0.591370000000     0.216480000000     0.966990000000    -0.0204299  
C770     C      0.625550000000     0.230840000000     0.003420000000    -0.0649445  
C771     C      0.598680000000     0.218030000000     0.986560000000     0.0134351  
C772     C      0.616310000000     0.226360000000     0.986600000000     0.0142634  
C773     C      0.361750000000     0.303450000000     0.116180000000    -0.020232   
C774     C      0.286320000000     0.330670000000     0.120420000000    -0.0205365  
C775     C      0.310520000000     0.354580000000     0.120680000000    -0.0205497  
C776     C      0.319180000000     0.335760000000     0.120620000000     0.013823   
C777     C      0.305320000000     0.322180000000     0.120620000000     0.0145171  
C778     C      0.309800000000     0.303260000000     0.119640000000    -0.0651316  
C779     C      0.337230000000     0.279840000000     0.116740000000    -0.0199926  
C780     C      0.338360000000     0.331120000000     0.119410000000    -0.0642711  
C781     C      0.328930000000     0.298620000000     0.118680000000     0.014569   
C782     C      0.342860000000     0.312130000000     0.118460000000     0.0137432  
C783     C      0.533650000000     0.253540000000     0.128040000000    -0.0206499  
C784     C      0.460970000000     0.268220000000     0.097130000000    -0.0205106  
C785     C      0.461140000000     0.253700000000     0.128040000000    -0.0204655  
C786     C      0.480570000000     0.258420000000     0.122100000000     0.0143503  
C787     C      0.480540000000     0.266670000000     0.104450000000     0.0136041  
C788     C      0.497430000000     0.270880000000     0.095070000000    -0.0642662  
C789     C      0.533880000000     0.268060000000     0.097130000000    -0.0203955  
C790     C      0.497400000000     0.253930000000     0.131340000000    -0.0650983  
C791     C      0.514300000000     0.266580000000     0.104440000000     0.0135405  
C792     C      0.514240000000     0.258330000000     0.122090000000     0.0144519  
C793     C      0.286260000000     0.330520000000     0.886340000000    -0.0206236  
C794     C      0.361700000000     0.303300000000     0.890480000000    -0.0202618  
C795     C      0.337180000000     0.279690000000     0.889960000000    -0.0199287  
C796     C      0.328880000000     0.298470000000     0.888020000000     0.0145723  
C797     C      0.342810000000     0.311980000000     0.888210000000     0.0137699  
C798     C      0.338310000000     0.330970000000     0.887280000000    -0.0643809  
C799     C      0.310470000000     0.354430000000     0.886030000000    -0.0206343  
C800     C      0.309750000000     0.303100000000     0.887100000000    -0.065184   
C801     C      0.319130000000     0.335610000000     0.886100000000     0.0138868  
C802     C      0.305260000000     0.322030000000     0.886130000000     0.0145038  
C803     C      0.380740000000     0.154500000000     0.792260000000    -0.0204174  
C804     C      0.384400000000     0.181690000000     0.867700000000    -0.0203566  
C805     C      0.384220000000     0.205310000000     0.843200000000    -0.0198549  
C806     C      0.382260000000     0.186540000000     0.834880000000     0.0145132  
C807     C      0.382270000000     0.173020000000     0.848800000000     0.0138018  
C808     C      0.381250000000     0.154040000000     0.844290000000    -0.0643415  
C809     C      0.380070000000     0.130590000000     0.816440000000    -0.0205345  
C810     C      0.381480000000     0.181910000000     0.815750000000    -0.0651466  
C811     C      0.380220000000     0.149410000000     0.825110000000     0.0138389  
C812     C      0.380450000000     0.162990000000     0.811260000000     0.0144543  
C813     C      0.372490000000     0.231410000000     0.967120000000    -0.0205466  
C814     C      0.403340000000     0.216770000000     0.039810000000    -0.0203995  
C815     C      0.372510000000     0.231480000000     0.039600000000    -0.0206394  
C816     C      0.378420000000     0.226660000000     0.020190000000     0.0144207  
C817     C      0.396020000000     0.218290000000     0.020240000000     0.0135425  
C818     C      0.405370000000     0.213980000000     0.003370000000    -0.0641126  
C819     C      0.403320000000     0.216700000000     0.966930000000    -0.0205075  
C820     C      0.369190000000     0.231150000000     0.003360000000    -0.0649442  
C821     C      0.396020000000     0.218280000000     0.986500000000     0.013458   
C822     C      0.378420000000     0.226640000000     0.986540000000     0.0142602  
C823     C      0.460920000000     0.268110000000     0.909610000000    -0.0204587  
C824     C      0.533620000000     0.253480000000     0.878750000000    -0.0205095  
C825     C      0.533830000000     0.268010000000     0.909650000000    -0.0204066  
C826     C      0.514250000000     0.266530000000     0.902330000000     0.0135328  
C827     C      0.514210000000     0.258270000000     0.884680000000     0.0143827  
C828     C      0.497370000000     0.253830000000     0.875430000000    -0.0650732  
C829     C      0.461110000000     0.253580000000     0.878710000000    -0.0204333  
C830     C      0.497370000000     0.270800000000     0.911700000000    -0.0642714  
C831     C      0.480540000000     0.258300000000     0.884670000000     0.0143467  
C832     C      0.480490000000     0.266560000000     0.902320000000     0.0135851  
C833     C      0.304480000000     0.874690000000     0.362460000000    -0.0204978  
C834     C      0.332520000000     0.883020000000     0.287590000000    -0.0202598  
C835     C      0.356200000000     0.874890000000     0.310940000000    -0.0204973  
C836     C      0.337160000000     0.875610000000     0.319650000000     0.0139801  
C837     C      0.323710000000     0.880220000000     0.306270000000     0.0144854  
C838     C      0.304750000000     0.882650000000     0.311060000000    -0.065044   
C839     C      0.281160000000     0.882790000000     0.338750000000    -0.0200959  
C840     C      0.332300000000     0.873190000000     0.338670000000    -0.064363   
C841     C      0.299890000000     0.880110000000     0.329990000000     0.0143798  
C842     C      0.313250000000     0.875510000000     0.343460000000     0.0140569  
C843     C      0.356740000000     0.111570000000     0.309470000000    -0.0205116  
C844     C      0.282140000000     0.102920000000     0.338250000000    -0.0200296  
C845     C      0.305630000000     0.111450000000     0.361630000000    -0.0207487  
C846     C      0.314200000000     0.110590000000     0.342530000000     0.0140822  
C847     C      0.300740000000     0.105730000000     0.329250000000     0.0143015  
C848     C      0.305410000000     0.103110000000     0.310280000000    -0.0650389  
C849     C      0.332920000000     0.102920000000     0.286470000000    -0.020266   
C850     C      0.333160000000     0.113130000000     0.337480000000    -0.0644372  
C851     C      0.324280000000     0.105740000000     0.305240000000     0.0144271  
C852     C      0.337820000000     0.110630000000     0.318420000000     0.013989   
C853     C      0.380130000000     0.130750000000     0.190300000000    -0.0206162  
C854     C      0.384220000000     0.205460000000     0.163520000000    -0.0199827  
C855     C      0.384440000000     0.181840000000     0.139020000000    -0.0203138  
C856     C      0.382300000000     0.173170000000     0.157920000000     0.0138008  
C857     C      0.382270000000     0.186700000000     0.171840000000     0.014527   
C858     C      0.381490000000     0.182070000000     0.190980000000    -0.0651064  
C859     C      0.380760000000     0.154670000000     0.214480000000    -0.0205298  
C860     C      0.381310000000     0.154190000000     0.162440000000    -0.0643926  
C861     C      0.380470000000     0.163160000000     0.195480000000     0.0144823  
C862     C      0.380260000000     0.149560000000     0.181630000000     0.013868   
C863     C      0.396630000000     0.028750000000     0.265170000000    -0.0200449  
C864     C      0.381850000000     0.956740000000     0.234660000000    -0.0205198  
C865     C      0.396530000000     0.957260000000     0.265610000000    -0.0200738  
C866     C      0.393100000000     0.976390000000     0.258810000000     0.0144806  
C867     C      0.384700000000     0.976210000000     0.241170000000     0.0137303  
C868     C      0.380250000000     0.992820000000     0.231750000000    -0.0640601  
C869     C      0.381740000000     0.028920000000     0.234310000000    -0.0205888  
C870     C      0.397560000000     0.993020000000     0.268000000000    -0.065173   
C871     C      0.384670000000     0.009520000000     0.241010000000     0.0136463  
C872     C      0.393120000000     0.009540000000     0.258620000000     0.0143436  
C873     C      0.610290000000     0.181540000000     0.139110000000    -0.0202477  
C874     C      0.614050000000     0.154400000000     0.214560000000    -0.0204438  
C875     C      0.614650000000     0.130470000000     0.190390000000    -0.0207006  
C876     C      0.614530000000     0.149280000000     0.181720000000     0.0138664  
C877     C      0.614340000000     0.162880000000     0.195560000000     0.0144965  
C878     C      0.613300000000     0.181790000000     0.191060000000    -0.0651827  
C879     C      0.610530000000     0.205170000000     0.163600000000    -0.0199763  
C880     C      0.613460000000     0.153910000000     0.162530000000    -0.064326   
C881     C      0.612480000000     0.186410000000     0.171920000000     0.0145688  
C882     C      0.612440000000     0.172880000000     0.158010000000     0.0137854  
C883     C      0.661790000000     0.102610000000     0.286590000000    -0.0203123  
C884     C      0.689070000000     0.111210000000     0.361750000000    -0.0205805  
C885     C      0.712560000000     0.102630000000     0.338380000000    -0.0202254  
C886     C      0.693960000000     0.105440000000     0.329370000000     0.0144306  
C887     C      0.680510000000     0.110330000000     0.342640000000     0.0139561  
C888     C      0.661550000000     0.112870000000     0.337590000000    -0.0642697  
C889     C      0.637970000000     0.111310000000     0.309580000000    -0.0206893  
C890     C      0.689300000000     0.102800000000     0.310410000000    -0.0651053  
C891     C      0.656890000000     0.110360000000     0.318530000000     0.0139775  
C892     C      0.670420000000     0.105440000000     0.305360000000     0.0144389  
C893     C      0.533550000000     0.098470000000     0.235140000000    -0.0200077  
C894     C      0.460760000000     0.109520000000     0.267500000000    -0.0207358  
C895     C      0.461180000000     0.098590000000     0.235090000000    -0.0199246  
C896     C      0.480570000000     0.101630000000     0.242020000000     0.0144552  
C897     C      0.480470000000     0.107840000000     0.260510000000     0.013716   
C898     C      0.497360000000     0.111050000000     0.270330000000    -0.0641735  
C899     C      0.533970000000     0.109410000000     0.267540000000    -0.0205985  
C900     C      0.497370000000     0.098280000000     0.232310000000    -0.0653358  
C901     C      0.514260000000     0.107770000000     0.260530000000     0.0136304  
C902     C      0.514160000000     0.101560000000     0.242040000000     0.0145149  
C903     C      0.661790000000     0.882680000000     0.287740000000    -0.0201405  
C904     C      0.689790000000     0.874440000000     0.362640000000    -0.0205779  
C905     C      0.713130000000     0.882470000000     0.338910000000    -0.0203063  
C906     C      0.694400000000     0.879780000000     0.330150000000     0.0145367  
C907     C      0.681020000000     0.875230000000     0.343630000000     0.0139964  
C908     C      0.661970000000     0.872940000000     0.338830000000    -0.0643208  
C909     C      0.638090000000     0.874630000000     0.311090000000    -0.0205527  
C910     C      0.689560000000     0.882310000000     0.311220000000    -0.0651793  
C911     C      0.657130000000     0.875340000000     0.319810000000     0.0140102  
C912     C      0.670590000000     0.879900000000     0.306420000000     0.0144483  
C913     C      0.533720000000     0.877280000000     0.268850000000    -0.020586   
C914     C      0.460960000000     0.887960000000     0.236290000000    -0.0200131  
C915     C      0.460580000000     0.877370000000     0.268810000000    -0.0205125  
C916     C      0.480270000000     0.879020000000     0.261800000000     0.0138107  
C917     C      0.480370000000     0.885040000000     0.243240000000     0.0144974  
C918     C      0.497180000000     0.888230000000     0.233490000000    -0.0652711  
C919     C      0.533410000000     0.887870000000     0.236320000000    -0.0201195  
C920     C      0.497150000000     0.875850000000     0.271640000000    -0.0642388  
C921     C      0.513980000000     0.885000000000     0.243260000000     0.0144926  
C922     C      0.514040000000     0.878980000000     0.261820000000     0.0138467  
C923     C      0.597980000000     0.028510000000     0.265280000000    -0.0200689  
C924     C      0.612630000000     0.956480000000     0.234770000000    -0.0205613  
C925     C      0.597940000000     0.957020000000     0.265720000000    -0.0200904  
C926     C      0.601420000000     0.976140000000     0.258930000000     0.0144777  
C927     C      0.609810000000     0.975950000000     0.241290000000     0.013759   
C928     C      0.614300000000     0.992550000000     0.231870000000    -0.0640483  
C929     C      0.612870000000     0.028650000000     0.234430000000    -0.0204311  
C930     C      0.596980000000     0.992780000000     0.268110000000    -0.065187   
C931     C      0.609910000000     0.009260000000     0.241120000000     0.0135884  
C932     C      0.601450000000     0.009290000000     0.258730000000     0.0143727  
C933     C      0.856250000000     0.609850000000     0.196160000000    -0.0205429  
C934     C      0.781450000000     0.601050000000     0.167990000000    -0.0201819  
C935     C      0.804710000000     0.609760000000     0.144440000000    -0.0205378  
C936     C      0.813450000000     0.608820000000     0.163450000000     0.0139961  
C937     C      0.800110000000     0.603880000000     0.176830000000     0.0144674  
C938     C      0.804940000000     0.601250000000     0.195750000000    -0.0651598  
C939     C      0.832610000000     0.601150000000     0.219340000000    -0.0203847  
C940     C      0.832440000000     0.611390000000     0.168340000000    -0.0643074  
C941     C      0.823840000000     0.603930000000     0.200640000000     0.014558   
C942     C      0.837260000000     0.608870000000     0.187360000000     0.0139563  
C943     C      0.804730000000     0.609660000000     0.862540000000    -0.0205691  
C944     C      0.832610000000     0.601060000000     0.787620000000    -0.0202066  
C945     C      0.856260000000     0.609730000000     0.810800000000    -0.0205517  
C946     C      0.837270000000     0.608770000000     0.819610000000     0.0139986  
C947     C      0.823840000000     0.603850000000     0.806320000000     0.0144752  
C948     C      0.804940000000     0.601170000000     0.811220000000    -0.0651162  
C949     C      0.781460000000     0.600980000000     0.838990000000    -0.0200514  
C950     C      0.832460000000     0.611280000000     0.838630000000    -0.0643647  
C951     C      0.800130000000     0.603790000000     0.830150000000     0.0143982  
C952     C      0.813470000000     0.608720000000     0.843520000000     0.0140267  
C953     C      0.729780000000     0.598040000000     0.967290000000    -0.0199834  
C954     C      0.762500000000     0.608070000000     0.040050000000    -0.0204796  
C955     C      0.729760000000     0.598090000000     0.039700000000    -0.0200586  
C956     C      0.736740000000     0.600930000000     0.020290000000     0.0144734  
C957     C      0.755420000000     0.606600000000     0.020370000000     0.013782   
C958     C      0.765320000000     0.609530000000     0.003490000000    -0.0640006  
C959     C      0.762510000000     0.608020000000     0.966940000000    -0.0204396  
C960     C      0.726920000000     0.597880000000     0.003490000000    -0.0650715  
C961     C      0.755430000000     0.606560000000     0.986610000000     0.0136495  
C962     C      0.736750000000     0.600890000000     0.986700000000     0.0143441  
C963     C      0.708520000000     0.330330000000     0.120430000000    -0.0206179  
C964     C      0.633080000000     0.303110000000     0.116280000000    -0.0203078  
C965     C      0.657600000000     0.279500000000     0.116760000000    -0.0199614  
C966     C      0.665900000000     0.298280000000     0.118720000000     0.0145533  
C967     C      0.651970000000     0.311790000000     0.118550000000     0.013799   
C968     C      0.656470000000     0.330780000000     0.119510000000    -0.0644106  
C969     C      0.684310000000     0.354240000000     0.120770000000    -0.020694   
C970     C      0.685030000000     0.302910000000     0.119640000000    -0.0650903  
C971     C      0.675650000000     0.335420000000     0.120680000000     0.0139358  
C972     C      0.689520000000     0.321840000000     0.120630000000     0.0144653  
C973     C      0.780570000000     0.382820000000     0.167740000000    -0.0203239  
C974     C      0.855650000000     0.373720000000     0.195160000000    -0.0206706  
C975     C      0.832340000000     0.382800000000     0.218530000000    -0.0203757  
C976     C      0.823330000000     0.379930000000     0.199950000000     0.0144813  
C977     C      0.836560000000     0.374760000000     0.186560000000     0.0139812  
C978     C      0.831490000000     0.372070000000     0.167640000000    -0.0642808  
C979     C      0.803480000000     0.373640000000     0.144040000000    -0.0204054  
C980     C      0.804390000000     0.382720000000     0.195240000000    -0.0651393  
C981     C      0.812460000000     0.374730000000     0.162940000000     0.0138746  
C982     C      0.799320000000     0.379930000000     0.176400000000     0.0145     
C983     C      0.728280000000     0.528220000000     0.118170000000    -0.0204795  
C984     C      0.758700000000     0.456250000000     0.103060000000    -0.0199602  
C985     C      0.728060000000     0.456060000000     0.118400000000    -0.0206035  
C986     C      0.734650000000     0.475460000000     0.115280000000     0.0138243  
C987     C      0.752140000000     0.475460000000     0.106560000000     0.0144307  
C988     C      0.761420000000     0.491990000000     0.101950000000    -0.0653289  
C989     C      0.759010000000     0.527750000000     0.103020000000    -0.0201403  
C990     C      0.725430000000     0.492150000000     0.119820000000    -0.0642777  
C991     C      0.752260000000     0.508610000000     0.106520000000     0.0145009  
C992     C      0.734750000000     0.508770000000     0.115180000000     0.0137488  
C993     C      0.855580000000     0.373600000000     0.811680000000    -0.0204952  
C994     C      0.780520000000     0.382750000000     0.839130000000    -0.0201498  
C995     C      0.803430000000     0.373540000000     0.862820000000    -0.0206533  
C996     C      0.812400000000     0.374630000000     0.843920000000     0.0140037  
C997     C      0.799260000000     0.379840000000     0.830450000000     0.0143826  
C998     C      0.804330000000     0.382640000000     0.811620000000    -0.0650295  
C999     C      0.832280000000     0.382700000000     0.788330000000    -0.0201257  
C1000    C      0.831430000000     0.371960000000     0.839210000000    -0.0643644  
C1001    C      0.823270000000     0.379840000000     0.806910000000     0.0143649  
C1002    C      0.836500000000     0.374660000000     0.820290000000     0.0139765  
C1003    C      0.657550000000     0.279460000000     0.890070000000    -0.0199644  
C1004    C      0.684270000000     0.354190000000     0.886090000000    -0.0206741  
C1005    C      0.708480000000     0.330280000000     0.886420000000    -0.020533   
C1006    C      0.689470000000     0.321790000000     0.886200000000     0.0144964  
C1007    C      0.675610000000     0.335380000000     0.886160000000     0.0138746  
C1008    C      0.656430000000     0.330730000000     0.887350000000    -0.064329   
C1009    C      0.633040000000     0.303070000000     0.890560000000    -0.0202082  
C1010    C      0.684990000000     0.302870000000     0.887190000000    -0.0651126  
C1011    C      0.651930000000     0.311750000000     0.888310000000     0.0137764  
C1012    C      0.665860000000     0.298230000000     0.888120000000     0.0145293  
C1013    C      0.761540000000     0.375030000000     0.966840000000    -0.0206579  
C1014    C      0.728890000000     0.385270000000     0.039610000000    -0.0200173  
C1015    C      0.761550000000     0.375060000000     0.040030000000    -0.0206328  
C1016    C      0.754490000000     0.376490000000     0.020330000000     0.013621   
C1017    C      0.735850000000     0.382280000000     0.020230000000     0.01453    
C1018    C      0.726050000000     0.385360000000     0.003440000000    -0.065217   
C1019    C      0.728870000000     0.385230000000     0.967270000000    -0.0200979  
C1020    C      0.764370000000     0.373470000000     0.003440000000    -0.0639047  
C1021    C      0.735840000000     0.382270000000     0.986650000000     0.0144245  
C1022    C      0.754480000000     0.376480000000     0.986550000000     0.0134761  
C1023    C      0.758700000000     0.456190000000     0.903830000000    -0.0200842  
C1024    C      0.728270000000     0.528170000000     0.888790000000    -0.0206855  
C1025    C      0.759010000000     0.527680000000     0.903930000000    -0.0200837  
C1026    C      0.752260000000     0.508550000000     0.900420000000     0.014449   
C1027    C      0.734750000000     0.508710000000     0.891760000000     0.0138105  
C1028    C      0.725430000000     0.492100000000     0.887110000000    -0.0642467  
C1029    C      0.728050000000     0.456010000000     0.888500000000    -0.0206813  
C1030    C      0.761410000000     0.491930000000     0.904970000000    -0.065237   
C1031    C      0.734640000000     0.475400000000     0.891640000000     0.0138317  
C1032    C      0.752130000000     0.475390000000     0.900350000000     0.0144104  
C1033    C      0.282700000000     0.655440000000     0.118470000000    -0.0201444  
C1034    C      0.357480000000     0.683990000000     0.124460000000    -0.0205175  
C1035    C      0.333080000000     0.706890000000     0.118150000000    -0.0203583  
C1036    C      0.324700000000     0.688230000000     0.120830000000     0.0144545  
C1037    C      0.338570000000     0.675110000000     0.124380000000     0.0140214  
C1038    C      0.334170000000     0.656160000000     0.126200000000    -0.0643939  
C1039    C      0.306800000000     0.632190000000     0.124620000000    -0.0207229  
C1040    C      0.305740000000     0.683220000000     0.118960000000    -0.0649871  
C1041    C      0.315130000000     0.651150000000     0.124470000000     0.0141471  
C1042    C      0.301330000000     0.664360000000     0.120970000000     0.0143402  
C1043    C      0.383090000000     0.778410000000     0.167450000000    -0.0201546  
C1044    C      0.376180000000     0.853050000000     0.193790000000    -0.0205264  
C1045    C      0.382680000000     0.829840000000     0.217820000000    -0.0201742  
C1046    C      0.380170000000     0.820910000000     0.199200000000     0.0144519  
C1047    C      0.376460000000     0.834090000000     0.185440000000     0.0140125  
C1048    C      0.374650000000     0.829080000000     0.166410000000    -0.0643918  
C1049    C      0.376420000000     0.801250000000     0.143100000000    -0.0205939  
C1050    C      0.382310000000     0.802070000000     0.194790000000    -0.065161   
C1051    C      0.376620000000     0.810150000000     0.162000000000     0.0140328  
C1052    C      0.380370000000     0.797060000000     0.175840000000     0.0144299  
C1053    C      0.382770000000     0.829660000000     0.789020000000    -0.0201124  
C1054    C      0.376410000000     0.801090000000     0.863730000000    -0.0205067  
C1055    C      0.383160000000     0.778250000000     0.839410000000    -0.020216   
C1056    C      0.380420000000     0.796890000000     0.831000000000     0.014429   
C1057    C      0.376620000000     0.809980000000     0.844830000000     0.0140043  
C1058    C      0.374640000000     0.828910000000     0.840410000000    -0.0643923  
C1059    C      0.376180000000     0.852870000000     0.813020000000    -0.0205655  
C1060    C      0.382400000000     0.801900000000     0.812060000000    -0.0650625  
C1061    C      0.376500000000     0.833920000000     0.821380000000     0.0140407  
C1062    C      0.380250000000     0.820740000000     0.807630000000     0.0143834  
C1063    C      0.357510000000     0.683850000000     0.882430000000    -0.0204852  
C1064    C      0.282720000000     0.655300000000     0.888250000000    -0.0200603  
C1065    C      0.306820000000     0.632050000000     0.882160000000    -0.0206541  
C1066    C      0.315150000000     0.651020000000     0.882310000000     0.0141037  
C1067    C      0.301350000000     0.664220000000     0.885780000000     0.0143246  
C1068    C      0.305750000000     0.683080000000     0.887810000000    -0.0650041  
C1069    C      0.333100000000     0.706750000000     0.888700000000    -0.020437   
C1070    C      0.334200000000     0.656020000000     0.880640000000    -0.0644139  
C1071    C      0.324720000000     0.688090000000     0.886010000000     0.0144509  
C1072    C      0.338600000000     0.674960000000     0.882480000000     0.0140126  
C1073    C      0.380030000000     0.758450000000     0.966890000000    -0.0205042  
C1074    C      0.393010000000     0.727210000000     0.039680000000    -0.0201634  
C1075    C      0.380070000000     0.758510000000     0.039990000000    -0.0204869  
C1076    C      0.382320000000     0.751720000000     0.020320000000     0.0137872  
C1077    C      0.389690000000     0.733860000000     0.020250000000     0.0144717  
C1078    C      0.393590000000     0.724450000000     0.003460000000    -0.0651168  
C1079    C      0.392980000000     0.727150000000     0.967230000000    -0.0201012  
C1080    C      0.378450000000     0.761170000000     0.003440000000    -0.0640989  
C1081    C      0.389680000000     0.733840000000     0.986650000000     0.0143062  
C1082    C      0.382310000000     0.751690000000     0.986570000000     0.0136626  
C1083    C      0.618030000000     0.800950000000     0.143260000000    -0.0205701  
C1084    C      0.611580000000     0.829570000000     0.217950000000    -0.0203193  
C1085    C      0.618200000000     0.852760000000     0.193940000000    -0.0203928  
C1086    C      0.617900000000     0.833800000000     0.185590000000     0.0139395  
C1087    C      0.614130000000     0.820630000000     0.199350000000     0.0145338  
C1088    C      0.611970000000     0.801790000000     0.194930000000    -0.0652572  
C1089    C      0.611240000000     0.778130000000     0.167600000000    -0.0203151  
C1090    C      0.619770000000     0.828780000000     0.166570000000    -0.0643143  
C1091    C      0.613960000000     0.796770000000     0.175990000000     0.0145374  
C1092    C      0.617780000000     0.809850000000     0.162160000000     0.0139757  
C1093    C      0.661280000000     0.706570000000     0.118360000000    -0.0202059  
C1094    C      0.687540000000     0.631860000000     0.124740000000    -0.0204461  
C1095    C      0.711650000000     0.655120000000     0.118700000000    -0.0203466  
C1096    C      0.693020000000     0.664040000000     0.121190000000     0.0144973  
C1097    C      0.679210000000     0.650830000000     0.124630000000     0.013975   
C1098    C      0.660160000000     0.655830000000     0.126310000000    -0.0643131  
C1099    C      0.636860000000     0.683670000000     0.124570000000    -0.0205397  
C1100    C      0.688620000000     0.682900000000     0.119200000000    -0.0651369  
C1101    C      0.655770000000     0.674780000000     0.124510000000     0.0140045  
C1102    C      0.669650000000     0.687910000000     0.121020000000     0.0144548  
C1103    C      0.533470000000     0.757450000000     0.106640000000    -0.0199902  
C1104    C      0.460610000000     0.726490000000     0.120110000000    -0.0205139  
C1105    C      0.460990000000     0.757560000000     0.106620000000    -0.020069   
C1106    C      0.480410000000     0.750900000000     0.109990000000     0.014426   
C1107    C      0.480310000000     0.733170000000     0.117670000000     0.0138459  
C1108    C      0.497170000000     0.723760000000     0.121710000000    -0.0643044  
C1109    C      0.533740000000     0.726390000000     0.120140000000    -0.0204968  
C1110    C      0.497230000000     0.760200000000     0.105910000000    -0.0652155  
C1111    C      0.514070000000     0.733120000000     0.117680000000     0.0138362  
C1112    C      0.514020000000     0.750850000000     0.109990000000     0.0143867  
C1113    C      0.617990000000     0.800870000000     0.863850000000    -0.0205714  
C1114    C      0.611520000000     0.829450000000     0.789150000000    -0.0201979  
C1115    C      0.618150000000     0.852660000000     0.813150000000    -0.0205398  
C1116    C      0.617850000000     0.833710000000     0.821510000000     0.0140164  
C1117    C      0.614080000000     0.820530000000     0.807760000000     0.0144501  
C1118    C      0.611920000000     0.801690000000     0.812190000000    -0.0651382  
C1119    C      0.611210000000     0.778030000000     0.839530000000    -0.0202461  
C1120    C      0.619720000000     0.828690000000     0.840530000000    -0.0643765  
C1121    C      0.613920000000     0.796680000000     0.831130000000     0.0144644  
C1122    C      0.617740000000     0.809770000000     0.844950000000     0.0140157  
C1123    C      0.661290000000     0.706510000000     0.888770000000    -0.0203491  
C1124    C      0.687550000000     0.631810000000     0.882290000000    -0.0205043  
C1125    C      0.711660000000     0.655070000000     0.888320000000    -0.0201597  
C1126    C      0.693030000000     0.663980000000     0.885860000000     0.0144224  
C1127    C      0.679220000000     0.650770000000     0.882420000000     0.0139997  
C1128    C      0.660170000000     0.655780000000     0.880760000000    -0.0642985  
C1129    C      0.636860000000     0.683610000000     0.882560000000    -0.0206216  
C1130    C      0.688630000000     0.682840000000     0.887880000000    -0.0650536  
C1131    C      0.655780000000     0.674720000000     0.882600000000     0.0140241  
C1132    C      0.669660000000     0.687850000000     0.886080000000     0.0144456  
C1133    C      0.533760000000     0.726280000000     0.886990000000    -0.02041    
C1134    C      0.460970000000     0.757450000000     0.900370000000    -0.0199346  
C1135    C      0.460630000000     0.726380000000     0.886890000000    -0.0205477  
C1136    C      0.480320000000     0.733060000000     0.889370000000     0.0138408  
C1137    C      0.480410000000     0.750790000000     0.897040000000     0.0143713  
C1138    C      0.497220000000     0.760090000000     0.901140000000    -0.0652404  
C1139    C      0.533460000000     0.757350000000     0.900480000000    -0.0201969  
C1140    C      0.497190000000     0.723640000000     0.885360000000    -0.0642758  
C1141    C      0.514020000000     0.750740000000     0.897100000000     0.0144673  
C1142    C      0.514080000000     0.733010000000     0.889420000000     0.0137653  
C1143    C      0.614430000000     0.758230000000     0.040120000000    -0.0207187  
C1144    C      0.601470000000     0.726910000000     0.967350000000    -0.0198649  
C1145    C      0.614430000000     0.758200000000     0.967010000000    -0.0206357  
C1146    C      0.612170000000     0.751430000000     0.986690000000     0.0137752  
C1147    C      0.604790000000     0.733580000000     0.986780000000     0.0141771  
C1148    C      0.600870000000     0.724190000000     0.003580000000    -0.0650482  
C1149    C      0.601460000000     0.726940000000     0.039800000000    -0.0199896  
C1150    C      0.616030000000     0.760900000000     0.003560000000    -0.0642116  
C1151    C      0.604780000000     0.733590000000     0.020370000000     0.0143779  
C1152    C      0.612160000000     0.751450000000     0.020440000000     0.0139047  
H1       H      0.604860000000     0.953630000000     0.785520000000     0.0472546  
H2       H      0.582770000000     0.954420000000     0.738700000000     0.046704   
H3       H      0.590430000000     0.992700000000     0.725100000000     0.0466151  
H4       H      0.620770000000     0.992350000000     0.788920000000     0.0470561  
H5       H      0.605210000000     0.031150000000     0.785920000000     0.0471357  
H6       H      0.605800000000     0.031280000000     0.728370000000     0.0459987  
H7       H      0.627820000000     0.953270000000     0.774530000000     0.0467654  
H8       H      0.605870000000     0.954070000000     0.727990000000     0.0462876  
H9       H      0.582780000000     0.030850000000     0.739220000000     0.0467817  
H10      H      0.628070000000     0.031520000000     0.774730000000     0.0468823  
H11      H      0.535620000000     0.083490000000     0.776030000000     0.0472893  
H12      H      0.536350000000     0.100230000000     0.726820000000     0.0473372  
H13      H      0.497320000000     0.115440000000     0.722000000000     0.0469944  
H14      H      0.497280000000     0.092850000000     0.788840000000     0.0465541  
H15      H      0.458920000000     0.083580000000     0.776010000000     0.0473172  
H16      H      0.457320000000     0.123890000000     0.735520000000     0.0464239  
H17      H      0.536680000000     0.107360000000     0.783910000000     0.045764   
H18      H      0.537340000000     0.123810000000     0.735540000000     0.0463584  
H19      H      0.458260000000     0.100310000000     0.726790000000     0.0473688  
H20      H      0.457910000000     0.107450000000     0.783880000000     0.0458017  
H21      H      0.389260000000     0.031350000000     0.785830000000     0.0471104  
H22      H      0.411730000000     0.031040000000     0.739150000000     0.0467852  
H23      H      0.404040000000     0.992900000000     0.725010000000     0.0466421  
H24      H      0.373660000000     0.992560000000     0.788810000000     0.0470511  
H25      H      0.389530000000     0.953830000000     0.785410000000     0.0472351  
H26      H      0.388560000000     0.954290000000     0.727870000000     0.0462676  
H27      H      0.366410000000     0.031750000000     0.774620000000     0.0468717  
H28      H      0.388710000000     0.031500000000     0.728270000000     0.0460002  
H29      H      0.411650000000     0.954610000000     0.738600000000     0.0466875  
H30      H      0.366570000000     0.953490000000     0.774390000000     0.0467717  
H31      H      0.457260000000     0.862680000000     0.734080000000     0.0468274  
H32      H      0.457760000000     0.878650000000     0.782680000000     0.0460255  
H33      H      0.497150000000     0.893160000000     0.787810000000     0.0466135  
H34      H      0.497180000000     0.871220000000     0.720740000000     0.047094   
H35      H      0.537040000000     0.862570000000     0.734150000000     0.0468373  
H36      H      0.535660000000     0.902470000000     0.775070000000     0.0470896  
H37      H      0.458150000000     0.886370000000     0.725670000000     0.0475402  
H38      H      0.458700000000     0.902580000000     0.775010000000     0.047127   
H39      H      0.536510000000     0.878530000000     0.782740000000     0.0459538  
H40      H      0.536240000000     0.886260000000     0.725720000000     0.0475625  
H41      H      0.768400000000     0.032060000000     0.373400000000     0.0468878  
H42      H      0.720730000000     0.031230000000     0.392690000000     0.0461456  
H43      H      0.717000000000     0.992600000000     0.407920000000     0.0466622  
H44      H      0.782520000000     0.992980000000     0.381400000000     0.0470397  
H45      H      0.768870000000     0.953720000000     0.373440000000     0.0468883  
H46      H      0.730630000000     0.954530000000     0.416450000000     0.0469111  
H47      H      0.778150000000     0.031720000000     0.396910000000     0.0472387  
H48      H      0.730110000000     0.030870000000     0.416360000000     0.0467471  
H49      H      0.721220000000     0.954000000000     0.392800000000     0.046297   
H50      H      0.778640000000     0.954210000000     0.396940000000     0.0471868  
H51      H      0.688120000000     0.125390000000     0.639280000000     0.0470285  
H52      H      0.723060000000     0.112690000000     0.674060000000     0.0460332  
H53      H      0.699730000000     0.098550000000     0.706810000000     0.0466134  
H54      H      0.650910000000     0.116210000000     0.658960000000     0.0470867  
H55      H      0.632030000000     0.125480000000     0.696590000000     0.0472866  
H56      H      0.664270000000     0.088180000000     0.725630000000     0.0470657  
H57      H      0.682070000000     0.101300000000     0.635340000000     0.0477203  
H58      H      0.717900000000     0.088270000000     0.671050000000     0.0471347  
H59      H      0.667440000000     0.112580000000     0.730800000000     0.0461502  
H60      H      0.627870000000     0.101420000000     0.690560000000     0.0475754  
H61      H      0.717860000000     0.098380000000     0.542620000000     0.0473263  
H62      H      0.767050000000     0.081870000000     0.542010000000     0.0470229  
H63      H      0.779890000000     0.091120000000     0.503490000000     0.0465855  
H64      H      0.712950000000     0.113510000000     0.503490000000     0.0470365  
H65      H      0.717870000000     0.098430000000     0.464340000000     0.0472487  
H66      H      0.774960000000     0.105800000000     0.464230000000     0.0460327  
H67      H      0.726380000000     0.122040000000     0.543340000000     0.0468089  
H68      H      0.774950000000     0.105740000000     0.542770000000     0.0460733  
H69      H      0.767070000000     0.081920000000     0.464940000000     0.0469988  
H70      H      0.726390000000     0.122090000000     0.463660000000     0.0467333  
H71      H      0.632010000000     0.860260000000     0.694990000000     0.04719    
H72      H      0.667240000000     0.872240000000     0.729750000000     0.0461282  
H73      H      0.699990000000     0.886100000000     0.706290000000     0.0467576  
H74      H      0.651480000000     0.869610000000     0.657700000000     0.0471053  
H75      H      0.688830000000     0.860130000000     0.638370000000     0.0471301  
H76      H      0.718660000000     0.896580000000     0.670880000000     0.0472986  
H77      H      0.628320000000     0.884450000000     0.689190000000     0.0476514  
H78      H      0.664500000000     0.896740000000     0.724800000000     0.0472087  
H79      H      0.723510000000     0.872070000000     0.673630000000     0.0461179  
H80      H      0.683070000000     0.884320000000     0.634610000000     0.0478237  
H81      H      0.719340000000     0.886660000000     0.464490000000     0.0474388  
H82      H      0.768400000000     0.903620000000     0.465040000000     0.0470272  
H83      H      0.781340000000     0.894470000000     0.503540000000     0.046648   
H84      H      0.714600000000     0.871480000000     0.503550000000     0.0470915  
H85      H      0.719360000000     0.886630000000     0.542630000000     0.0474814  
H86      H      0.776510000000     0.879780000000     0.542850000000     0.0460162  
H87      H      0.728100000000     0.863080000000     0.463710000000     0.0468621  
H88      H      0.776490000000     0.879810000000     0.464230000000     0.0460546  
H89      H      0.768410000000     0.903590000000     0.542060000000     0.0469922  
H90      H      0.728120000000     0.863050000000     0.543380000000     0.0468945  
H91      H      0.720740000000     0.031170000000     0.614340000000     0.0462137  
H92      H      0.768410000000     0.032030000000     0.633620000000     0.0468807  
H93      H      0.782530000000     0.992940000000     0.625660000000     0.0470231  
H94      H      0.717000000000     0.992520000000     0.599160000000     0.0466703  
H95      H      0.721230000000     0.953930000000     0.614320000000     0.0462573  
H96      H      0.778660000000     0.954150000000     0.610150000000     0.047108   
H97      H      0.730110000000     0.030780000000     0.590680000000     0.0468259  
H98      H      0.778150000000     0.031650000000     0.610110000000     0.047222   
H99      H      0.768890000000     0.953670000000     0.633660000000     0.0468273  
H100     H      0.730620000000     0.954440000000     0.590670000000     0.0468815  
H101     H      0.776310000000     0.158720000000     0.602860000000     0.047338   
H102     H      0.812690000000     0.123080000000     0.613740000000     0.0480242  
H103     H      0.844220000000     0.145940000000     0.628450000000     0.0471813  
H104     H      0.794780000000     0.193600000000     0.613770000000     0.0466412  
H105     H      0.829760000000     0.212450000000     0.602490000000     0.0472294  
H106     H      0.863470000000     0.182850000000     0.638190000000     0.0471953  
H107     H      0.771960000000     0.160710000000     0.627860000000     0.0459045  
H108     H      0.807270000000     0.126170000000     0.638420000000     0.0469521  
H109     H      0.866660000000     0.177460000000     0.613540000000     0.0478476  
H110     H      0.827660000000     0.216910000000     0.627460000000     0.0459482  
H111     H      0.036480000000     0.213530000000     0.611540000000     0.0474191  
H112     H      0.035880000000     0.261240000000     0.592560000000     0.0468908  
H113     H      0.997290000000     0.274290000000     0.601290000000     0.0465815  
H114     H      0.997350000000     0.209360000000     0.627050000000     0.0470963  
H115     H      0.958220000000     0.213450000000     0.611540000000     0.0474249  
H116     H      0.957990000000     0.270050000000     0.616350000000     0.0460406  
H117     H      0.037160000000     0.223010000000     0.635100000000     0.046812   
H118     H      0.036600000000     0.270120000000     0.616360000000     0.0459578  
H119     H      0.958720000000     0.261160000000     0.592560000000     0.0470061  
H120     H      0.957530000000     0.222930000000     0.635100000000     0.0468118  
H121     H      0.771960000000     0.160750000000     0.379070000000     0.0459684  
H122     H      0.807260000000     0.126210000000     0.368510000000     0.0469193  
H123     H      0.844220000000     0.145990000000     0.378420000000     0.0471505  
H124     H      0.794800000000     0.193670000000     0.393100000000     0.0467174  
H125     H      0.827660000000     0.216960000000     0.379340000000     0.0459706  
H126     H      0.866670000000     0.177530000000     0.393270000000     0.0478154  
H127     H      0.776340000000     0.158790000000     0.404070000000     0.0474067  
H128     H      0.812710000000     0.123150000000     0.393190000000     0.0480086  
H129     H      0.863460000000     0.182900000000     0.368610000000     0.047102   
H130     H      0.829780000000     0.212540000000     0.404310000000     0.047299   
H131     H      0.866000000000     0.261660000000     0.543130000000     0.0468465  
H132     H      0.885740000000     0.214880000000     0.542610000000     0.0460474  
H133     H      0.900940000000     0.211040000000     0.503380000000     0.0466616  
H134     H      0.873820000000     0.275430000000     0.503400000000     0.0471094  
H135     H      0.866020000000     0.261690000000     0.463650000000     0.0468259  
H136     H      0.909370000000     0.224330000000     0.464760000000     0.046872   
H137     H      0.889390000000     0.271560000000     0.542570000000     0.0473901  
H138     H      0.909340000000     0.224290000000     0.542020000000     0.0468623  
H139     H      0.885770000000     0.214910000000     0.464150000000     0.0460608  
H140     H      0.889420000000     0.271600000000     0.464230000000     0.0473494  
H141     H      0.035890000000     0.261340000000     0.414140000000     0.0469409  
H142     H      0.036500000000     0.213640000000     0.395130000000     0.0473518  
H143     H      0.997370000000     0.209470000000     0.379640000000     0.047112   
H144     H      0.997290000000     0.274380000000     0.405450000000     0.0465957  
H145     H      0.958740000000     0.261220000000     0.414200000000     0.0469822  
H146     H      0.957530000000     0.223030000000     0.371640000000     0.0467951  
H147     H      0.036590000000     0.270240000000     0.390350000000     0.0459989  
H148     H      0.037160000000     0.223140000000     0.371580000000     0.0467441  
H149     H      0.958240000000     0.213530000000     0.395190000000     0.047382   
H150     H      0.957980000000     0.270130000000     0.390420000000     0.0460465  
H151     H      0.105190000000     0.271770000000     0.542540000000     0.047384   
H152     H      0.085280000000     0.224490000000     0.541970000000     0.0468065  
H153     H      0.093700000000     0.211250000000     0.503330000000     0.0465926  
H154     H      0.120760000000     0.275670000000     0.503370000000     0.0471077  
H155     H      0.105180000000     0.271830000000     0.464190000000     0.0473708  
H156     H      0.108880000000     0.215150000000     0.464100000000     0.0460256  
H157     H      0.128590000000     0.261890000000     0.543100000000     0.0468536  
H158     H      0.108890000000     0.215090000000     0.542560000000     0.0459972  
H159     H      0.085270000000     0.224550000000     0.464700000000     0.0468157  
H160     H      0.128580000000     0.261950000000     0.463620000000     0.0468745  
H161     H      0.131230000000     0.183060000000     0.638140000000     0.0471384  
H162     H      0.167010000000     0.217120000000     0.627350000000     0.0459579  
H163     H      0.199880000000     0.193810000000     0.613610000000     0.0466627  
H164     H      0.150470000000     0.146140000000     0.628380000000     0.0471318  
H165     H      0.187420000000     0.126390000000     0.638300000000     0.0469377  
H166     H      0.218340000000     0.158910000000     0.602680000000     0.0473234  
H167     H      0.128010000000     0.177650000000     0.613490000000     0.0478209  
H168     H      0.164880000000     0.212650000000     0.602390000000     0.0472725  
H169     H      0.222720000000     0.160920000000     0.627680000000     0.0458976  
H170     H      0.181980000000     0.123280000000     0.613630000000     0.0480189  
H171     H      0.330320000000     0.088470000000     0.725550000000     0.0471745  
H172     H      0.366750000000     0.101640000000     0.690480000000     0.0476114  
H173     H      0.343750000000     0.116390000000     0.658860000000     0.047117   
H174     H      0.294890000000     0.098820000000     0.706690000000     0.0466887  
H175     H      0.276740000000     0.088490000000     0.670930000000     0.047164   
H176     H      0.306560000000     0.125560000000     0.639140000000     0.0470397  
H177     H      0.327180000000     0.112880000000     0.730690000000     0.0462433  
H178     H      0.362610000000     0.125710000000     0.696490000000     0.0473304  
H179     H      0.312590000000     0.101460000000     0.635230000000     0.0477438  
H180     H      0.271590000000     0.112910000000     0.673910000000     0.0460699  
H181     H      0.327110000000     0.872500000000     0.729600000000     0.0461212  
H182     H      0.362350000000     0.860490000000     0.694860000000     0.0471886  
H183     H      0.342880000000     0.869820000000     0.657560000000     0.0471965  
H184     H      0.294370000000     0.886350000000     0.706130000000     0.046709   
H185     H      0.270860000000     0.872290000000     0.673480000000     0.0460355  
H186     H      0.311300000000     0.884510000000     0.634450000000     0.0478815  
H187     H      0.329850000000     0.896990000000     0.724640000000     0.047189   
H188     H      0.366040000000     0.884680000000     0.689040000000     0.0476469  
H189     H      0.305540000000     0.860320000000     0.638230000000     0.0471699  
H190     H      0.275700000000     0.896800000000     0.670700000000     0.0472323  
H191     H      0.226170000000     0.032240000000     0.633480000000     0.0468967  
H192     H      0.273840000000     0.031320000000     0.614200000000     0.0461435  
H193     H      0.277520000000     0.992670000000     0.598990000000     0.046601   
H194     H      0.211990000000     0.993180000000     0.625500000000     0.0470325  
H195     H      0.225560000000     0.953890000000     0.633470000000     0.0468553  
H196     H      0.263820000000     0.954620000000     0.590480000000     0.0469457  
H197     H      0.216430000000     0.031900000000     0.609970000000     0.0472308  
H198     H      0.264470000000     0.030960000000     0.590530000000     0.0467301  
H199     H      0.273220000000     0.954090000000     0.614130000000     0.0462953  
H200     H      0.215800000000     0.954390000000     0.609970000000     0.0471599  
H201     H      0.274980000000     0.886790000000     0.542450000000     0.0474454  
H202     H      0.225930000000     0.903770000000     0.541910000000     0.047032   
H203     H      0.212980000000     0.894670000000     0.503400000000     0.0466261  
H204     H      0.279710000000     0.871660000000     0.503370000000     0.0471169  
H205     H      0.274960000000     0.886850000000     0.464310000000     0.0474745  
H206     H      0.217800000000     0.880030000000     0.464070000000     0.0460276  
H207     H      0.266200000000     0.863220000000     0.543200000000     0.0468717  
H208     H      0.217820000000     0.879970000000     0.542700000000     0.046032   
H209     H      0.225910000000     0.903840000000     0.464890000000     0.0470242  
H210     H      0.266190000000     0.863280000000     0.463530000000     0.0468778  
H211     H      0.218340000000     0.159050000000     0.404020000000     0.0472976  
H212     H      0.181990000000     0.123420000000     0.393030000000     0.0480353  
H213     H      0.150490000000     0.146280000000     0.378270000000     0.0471337  
H214     H      0.199890000000     0.193940000000     0.393100000000     0.0466865  
H215     H      0.164890000000     0.212780000000     0.404310000000     0.047227   
H216     H      0.131260000000     0.183200000000     0.368520000000     0.047151   
H217     H      0.222750000000     0.161060000000     0.379030000000     0.0459039  
H218     H      0.187460000000     0.126530000000     0.368360000000     0.0469737  
H219     H      0.128020000000     0.177790000000     0.393160000000     0.0478424  
H220     H      0.167030000000     0.217260000000     0.379360000000     0.0459514  
H221     H      0.273830000000     0.031430000000     0.392520000000     0.0461705  
H222     H      0.226170000000     0.032360000000     0.373220000000     0.0468533  
H223     H      0.211970000000     0.993310000000     0.381240000000     0.0470535  
H224     H      0.277480000000     0.992800000000     0.407780000000     0.0466033  
H225     H      0.273170000000     0.954200000000     0.392690000000     0.0462613  
H226     H      0.215740000000     0.954530000000     0.396810000000     0.0470848  
H227     H      0.264450000000     0.031100000000     0.416190000000     0.0467967  
H228     H      0.216410000000     0.032040000000     0.396730000000     0.0472138  
H229     H      0.225520000000     0.954010000000     0.373310000000     0.0468089  
H230     H      0.263750000000     0.954760000000     0.416330000000     0.0468811  
H231     H      0.268320000000     0.122220000000     0.543200000000     0.0467341  
H232     H      0.219740000000     0.105950000000     0.542630000000     0.0460711  
H233     H      0.214790000000     0.091350000000     0.503340000000     0.0466038  
H234     H      0.281750000000     0.113690000000     0.503360000000     0.0470504  
H235     H      0.268310000000     0.122290000000     0.463530000000     0.0467922  
H236     H      0.227610000000     0.082150000000     0.464800000000     0.0470205  
H237     H      0.276820000000     0.098550000000     0.542490000000     0.0472668  
H238     H      0.227620000000     0.082070000000     0.541870000000     0.0470166  
H239     H      0.219730000000     0.106030000000     0.464090000000     0.0460731  
H240     H      0.276810000000     0.098620000000     0.464200000000     0.0473191  
H241     H      0.036560000000     0.606340000000     0.723920000000     0.0459659  
H242     H      0.037090000000     0.622090000000     0.772560000000     0.0467704  
H243     H      0.997180000000     0.613430000000     0.785920000000     0.0470841  
H244     H      0.997170000000     0.591770000000     0.718760000000     0.0466049  
H245     H      0.957760000000     0.606260000000     0.723960000000     0.046035   
H246     H      0.958180000000     0.598300000000     0.780940000000     0.0474925  
H247     H      0.035630000000     0.582370000000     0.731470000000     0.0471114  
H248     H      0.036210000000     0.598370000000     0.780900000000     0.047433   
H249     H      0.957260000000     0.622020000000     0.772600000000     0.0468146  
H250     H      0.958740000000     0.582290000000     0.731510000000     0.0471598  
H251     H      0.872220000000     0.267690000000     0.672880000000     0.04596    
H252     H      0.862240000000     0.301890000000     0.637070000000     0.0471194  
H253     H      0.872180000000     0.338700000000     0.656480000000     0.0472182  
H254     H      0.885820000000     0.290820000000     0.705980000000     0.0466641  
H255     H      0.871900000000     0.323900000000     0.728700000000     0.0458432  
H256     H      0.886850000000     0.361350000000     0.688110000000     0.0481655  
H257     H      0.897260000000     0.271920000000     0.671150000000     0.0473459  
H258     H      0.886980000000     0.307110000000     0.634180000000     0.0479335  
H259     H      0.862090000000     0.358550000000     0.693360000000     0.04693    
H260     H      0.896980000000     0.325530000000     0.724580000000     0.0473777  
H261     H      0.891010000000     0.452680000000     0.722250000000     0.0472311  
H262     H      0.911460000000     0.453570000000     0.769790000000     0.0466997  
H263     H      0.903340000000     0.491910000000     0.783060000000     0.0466083  
H264     H      0.875400000000     0.491460000000     0.718150000000     0.0470394  
H265     H      0.890980000000     0.530300000000     0.721690000000     0.0470568  
H266     H      0.888070000000     0.530440000000     0.779170000000     0.0463311  
H267     H      0.867680000000     0.452450000000     0.732440000000     0.0469495  
H268     H      0.888020000000     0.453330000000     0.779720000000     0.0462416  
H269     H      0.911500000000     0.530060000000     0.769200000000     0.0467891  
H270     H      0.867660000000     0.530660000000     0.731900000000     0.0468592  
H271     H      0.107810000000     0.361510000000     0.688090000000     0.0481305  
H272     H      0.097760000000     0.325690000000     0.724570000000     0.0473624  
H273     H      0.108890000000     0.290990000000     0.705940000000     0.0466289  
H274     H      0.122440000000     0.338890000000     0.656440000000     0.047171   
H275     H      0.107620000000     0.307300000000     0.634150000000     0.0478499  
H276     H      0.122450000000     0.267880000000     0.672820000000     0.0458864  
H277     H      0.132580000000     0.358740000000     0.693320000000     0.0469104  
H278     H      0.122840000000     0.324080000000     0.728660000000     0.0458287  
H279     H      0.097400000000     0.272090000000     0.671120000000     0.0472437  
H280     H      0.132370000000     0.302090000000     0.637010000000     0.04708    
H281     H      0.958250000000     0.385740000000     0.782590000000     0.0473793  
H282     H      0.958850000000     0.401250000000     0.733020000000     0.0471184  
H283     H      0.997330000000     0.391740000000     0.720410000000     0.0466518  
H284     H      0.997350000000     0.370750000000     0.787780000000     0.0470194  
H285     H      0.036440000000     0.385810000000     0.782580000000     0.0473009  
H286     H      0.036690000000     0.377280000000     0.725690000000     0.0460243  
H287     H      0.957440000000     0.361930000000     0.774520000000     0.0467801  
H288     H      0.957990000000     0.377210000000     0.725690000000     0.0460253  
H289     H      0.035800000000     0.401320000000     0.733020000000     0.0471323  
H290     H      0.037270000000     0.362000000000     0.774510000000     0.0466715  
H291     H      0.126900000000     0.452640000000     0.732390000000     0.046997   
H292     H      0.106600000000     0.453500000000     0.779680000000     0.0462501  
H293     H      0.091200000000     0.492060000000     0.783010000000     0.0466077  
H294     H      0.119100000000     0.491630000000     0.718090000000     0.0470967  
H295     H      0.126780000000     0.530850000000     0.731820000000     0.0469156  
H296     H      0.082970000000     0.530180000000     0.769140000000     0.0467725  
H297     H      0.103570000000     0.452820000000     0.722220000000     0.0472721  
H298     H      0.083140000000     0.453690000000     0.769770000000     0.0466984  
H299     H      0.106400000000     0.530610000000     0.779100000000     0.0462832  
H300     H      0.103450000000     0.530450000000     0.721620000000     0.0471088  
H301     H      0.221620000000     0.825150000000     0.378510000000     0.0459862  
H302     H      0.185990000000     0.859420000000     0.368290000000     0.0468975  
H303     H      0.149230000000     0.839260000000     0.378320000000     0.0471757  
H304     H      0.199170000000     0.791970000000     0.392510000000     0.04672    
H305     H      0.166430000000     0.768430000000     0.378890000000     0.0460026  
H306     H      0.127160000000     0.807480000000     0.393190000000     0.0477269  
H307     H      0.217350000000     0.826910000000     0.403540000000     0.0474744  
H308     H      0.180610000000     0.862320000000     0.393000000000     0.0479049  
H309     H      0.130270000000     0.802190000000     0.368490000000     0.0470935  
H310     H      0.164470000000     0.772770000000     0.403880000000     0.0472811  
H311     H      0.808220000000     0.859110000000     0.368410000000     0.0468981  
H312     H      0.772610000000     0.824850000000     0.378770000000     0.0459793  
H313     H      0.795110000000     0.791690000000     0.392770000000     0.0467024  
H314     H      0.845010000000     0.838970000000     0.378370000000     0.0471021  
H315     H      0.863950000000     0.801880000000     0.368550000000     0.0471372  
H316     H      0.829850000000     0.772510000000     0.404070000000     0.0473122  
H317     H      0.813670000000     0.862050000000     0.393100000000     0.047865   
H318     H      0.776960000000     0.826660000000     0.403790000000     0.0474671  
H319     H      0.827820000000     0.768140000000     0.379090000000     0.0460143  
H320     H      0.867110000000     0.807220000000     0.393230000000     0.0477875  
H321     H      0.036210000000     0.771030000000     0.394750000000     0.047421   
H322     H      0.035750000000     0.723530000000     0.414310000000     0.0469215  
H323     H      0.997200000000     0.710280000000     0.405730000000     0.0466144  
H324     H      0.997110000000     0.774900000000     0.379190000000     0.0470943  
H325     H      0.958020000000     0.770930000000     0.394760000000     0.0474571  
H326     H      0.957860000000     0.714280000000     0.390620000000     0.045979   
H327     H      0.036950000000     0.761260000000     0.371310000000     0.0467497  
H328     H      0.036530000000     0.714380000000     0.390620000000     0.0459173  
H329     H      0.958620000000     0.723430000000     0.414320000000     0.0469896  
H330     H      0.957310000000     0.761150000000     0.371320000000     0.0467669  
H331     H      0.127220000000     0.807350000000     0.613730000000     0.0477848  
H332     H      0.164500000000     0.772640000000     0.602940000000     0.0472777  
H333     H      0.199220000000     0.791840000000     0.614230000000     0.046754   
H334     H      0.149310000000     0.839120000000     0.628560000000     0.0471125  
H335     H      0.180650000000     0.862190000000     0.613810000000     0.0478965  
H336     H      0.221700000000     0.825000000000     0.628190000000     0.0459469  
H337     H      0.130370000000     0.802030000000     0.638410000000     0.0471293  
H338     H      0.166510000000     0.768280000000     0.627930000000     0.0459742  
H339     H      0.217370000000     0.826790000000     0.603170000000     0.047432   
H340     H      0.186080000000     0.859270000000     0.638500000000     0.0469289  
H341     H      0.098060000000     0.658160000000     0.723770000000     0.0475151  
H342     H      0.107780000000     0.622590000000     0.686910000000     0.0479698  
H343     H      0.122420000000     0.645440000000     0.655440000000     0.0471508  
H344     H      0.109340000000     0.692920000000     0.705480000000     0.0466707  
H345     H      0.097790000000     0.712210000000     0.670940000000     0.0472772  
H346     H      0.132450000000     0.682420000000     0.636330000000     0.0471189  
H347     H      0.123170000000     0.659540000000     0.727800000000     0.0459333  
H348     H      0.132570000000     0.625160000000     0.692120000000     0.0468857  
H349     H      0.107670000000     0.677310000000     0.633540000000     0.0479138  
H350     H      0.122870000000     0.716300000000     0.672520000000     0.0458724  
H351     H      0.084980000000     0.760340000000     0.542070000000     0.0468013  
H352     H      0.105590000000     0.713340000000     0.542560000000     0.0474373  
H353     H      0.121230000000     0.709740000000     0.503410000000     0.0471075  
H354     H      0.093220000000     0.773760000000     0.503460000000     0.0465938  
H355     H      0.084980000000     0.760390000000     0.464820000000     0.0468217  
H356     H      0.128840000000     0.723620000000     0.463690000000     0.0468196  
H357     H      0.108460000000     0.770060000000     0.542710000000     0.0459794  
H358     H      0.128840000000     0.723570000000     0.543160000000     0.0468725  
H359     H      0.105590000000     0.713390000000     0.464270000000     0.0474047  
H360     H      0.108450000000     0.770120000000     0.464200000000     0.0459824  
H361     H      0.772670000000     0.824780000000     0.628310000000     0.0460056  
H362     H      0.808270000000     0.859050000000     0.638660000000     0.0469455  
H363     H      0.845060000000     0.838910000000     0.628690000000     0.0471557  
H364     H      0.795160000000     0.791630000000     0.614310000000     0.0467029  
H365     H      0.827870000000     0.768080000000     0.627970000000     0.0459885  
H366     H      0.867160000000     0.807160000000     0.613820000000     0.0477758  
H367     H      0.777000000000     0.826600000000     0.603290000000     0.0475054  
H368     H      0.813710000000     0.861990000000     0.613970000000     0.047921   
H369     H      0.864000000000     0.801830000000     0.638490000000     0.0471404  
H370     H      0.829890000000     0.772450000000     0.602990000000     0.0472688  
H371     H      0.886560000000     0.622420000000     0.687010000000     0.0480253  
H372     H      0.896250000000     0.658000000000     0.723870000000     0.0475153  
H373     H      0.885000000000     0.692760000000     0.705560000000     0.046657   
H374     H      0.871970000000     0.645270000000     0.655510000000     0.0471731  
H375     H      0.886760000000     0.677130000000     0.633630000000     0.0479465  
H376     H      0.871520000000     0.716130000000     0.672580000000     0.0459241  
H377     H      0.861760000000     0.625000000000     0.692190000000     0.0468782  
H378     H      0.871130000000     0.659370000000     0.727870000000     0.0459105  
H379     H      0.896600000000     0.712030000000     0.671030000000     0.0473215  
H380     H      0.861980000000     0.682240000000     0.636380000000     0.0471779  
H381     H      0.885920000000     0.769860000000     0.542770000000     0.0459786  
H382     H      0.865570000000     0.723340000000     0.543240000000     0.0468423  
H383     H      0.873190000000     0.709500000000     0.503500000000     0.0470767  
H384     H      0.901150000000     0.773550000000     0.503510000000     0.0465961  
H385     H      0.885910000000     0.769880000000     0.464260000000     0.0460259  
H386     H      0.888810000000     0.713150000000     0.464360000000     0.0473861  
H387     H      0.909400000000     0.760150000000     0.542140000000     0.0468511  
H388     H      0.888830000000     0.713130000000     0.542640000000     0.0474156  
H389     H      0.865560000000     0.723360000000     0.463770000000     0.0468335  
H390     H      0.909390000000     0.760170000000     0.464880000000     0.0468692  
H391     H      0.037020000000     0.761140000000     0.635620000000     0.0467757  
H392     H      0.036570000000     0.714270000000     0.616280000000     0.0459193  
H393     H      0.997230000000     0.710190000000     0.601200000000     0.0465704  
H394     H      0.997180000000     0.774800000000     0.627780000000     0.0471627  
H395     H      0.957380000000     0.761060000000     0.635670000000     0.0468228  
H396     H      0.958640000000     0.723360000000     0.592650000000     0.0469344  
H397     H      0.036260000000     0.770920000000     0.612190000000     0.0474304  
H398     H      0.035770000000     0.723440000000     0.592600000000     0.0469121  
H399     H      0.957900000000     0.714200000000     0.616340000000     0.0459171  
H400     H      0.958080000000     0.770850000000     0.612240000000     0.0475074  
H401     H      0.168060000000     0.373010000000     0.777660000000     0.0460924  
H402     H      0.133390000000     0.359420000000     0.812440000000     0.0469604  
H403     H      0.152940000000     0.368420000000     0.849720000000     0.0471     
H404     H      0.200580000000     0.387270000000     0.801160000000     0.0466826  
H405     H      0.224740000000     0.373110000000     0.833210000000     0.0462284  
H406     H      0.184400000000     0.383300000000     0.872950000000     0.047527   
H407     H      0.164640000000     0.397320000000     0.783100000000     0.0471133  
H408     H      0.129110000000     0.383400000000     0.818700000000     0.0475717  
H409     H      0.190660000000     0.359350000000     0.868460000000     0.0473241  
H410     H      0.219290000000     0.397400000000     0.836760000000     0.0470696  
H411     H      0.277840000000     0.376040000000     0.963950000000     0.0456982  
H412     H      0.229130000000     0.360720000000     0.963340000000     0.0463864  
H413     H      0.215780000000     0.369440000000     0.003390000000     0.0470187  
H414     H      0.283170000000     0.390480000000     0.003360000000     0.0465716  
H415     H      0.277850000000     0.376120000000     0.042790000000     0.0457598  
H416     H      0.220920000000     0.384550000000     0.042350000000     0.0474435  
H417     H      0.270580000000     0.400090000000     0.965080000000     0.0473683  
H418     H      0.220910000000     0.384480000000     0.964400000000     0.0474023  
H419     H      0.229140000000     0.360800000000     0.043440000000     0.046423   
H420     H      0.270580000000     0.400170000000     0.041620000000     0.0474317  
H421     H      0.268590000000     0.453450000000     0.133540000000     0.0469562  
H422     H      0.222520000000     0.453630000000     0.110520000000     0.0460296  
H423     H      0.219500000000     0.492160000000     0.095080000000     0.046596   
H424     H      0.282840000000     0.492580000000     0.126450000000     0.0470295  
H425     H      0.268280000000     0.531570000000     0.133330000000     0.0468301  
H426     H      0.233170000000     0.530530000000     0.087720000000     0.0466346  
H427     H      0.280110000000     0.453730000000     0.110840000000     0.0471086  
H428     H      0.233800000000     0.453960000000     0.087700000000     0.0467202  
H429     H      0.222040000000     0.530720000000     0.110610000000     0.046369   
H430     H      0.279600000000     0.531360000000     0.110530000000     0.0472378  
H431     H      0.164230000000     0.586950000000     0.782210000000     0.0471459  
H432     H      0.128110000000     0.600130000000     0.817550000000     0.0477853  
H433     H      0.151400000000     0.614950000000     0.849000000000     0.047187   
H434     H      0.199820000000     0.597210000000     0.800770000000     0.0466826  
H435     H      0.218220000000     0.586870000000     0.836450000000     0.0471398  
H436     H      0.188760000000     0.624150000000     0.868330000000     0.0471602  
H437     H      0.167400000000     0.611350000000     0.777060000000     0.0460917  
H438     H      0.132220000000     0.624210000000     0.811560000000     0.0472146  
H439     H      0.182760000000     0.600060000000     0.872390000000     0.0475003  
H440     H      0.223420000000     0.611260000000     0.833270000000     0.0461963  
H441     H      0.280070000000     0.453580000000     0.895870000000     0.0471153  
H442     H      0.233780000000     0.453820000000     0.919030000000     0.0467255  
H443     H      0.219490000000     0.492030000000     0.911680000000     0.0465739  
H444     H      0.282820000000     0.492440000000     0.880290000000     0.0470796  
H445     H      0.279620000000     0.531210000000     0.896230000000     0.0472159  
H446     H      0.222050000000     0.530600000000     0.896180000000     0.0463431  
H447     H      0.268550000000     0.453320000000     0.873180000000     0.0469369  
H448     H      0.222490000000     0.453510000000     0.896220000000     0.0460562  
H449     H      0.233200000000     0.530390000000     0.919060000000     0.0466194  
H450     H      0.268290000000     0.531440000000     0.873440000000     0.0468519  
H451     H      0.219620000000     0.598920000000     0.042350000000     0.0475576  
H452     H      0.269380000000     0.583740000000     0.041790000000     0.0471941  
H453     H      0.281930000000     0.593390000000     0.003390000000     0.0466009  
H454     H      0.214370000000     0.613900000000     0.003360000000     0.0470655  
H455     H      0.219620000000     0.598850000000     0.964410000000     0.0475137  
H456     H      0.276480000000     0.607770000000     0.963960000000     0.0458983  
H457     H      0.227580000000     0.622770000000     0.043300000000     0.0467707  
H458     H      0.276480000000     0.607850000000     0.042790000000     0.0459356  
H459     H      0.269380000000     0.583670000000     0.965000000000     0.0471557  
H460     H      0.227580000000     0.622690000000     0.963420000000     0.046732   
H461     H      0.218220000000     0.587080000000     0.170330000000     0.0470899  
H462     H      0.182750000000     0.600220000000     0.134380000000     0.0475809  
H463     H      0.151380000000     0.615120000000     0.157760000000     0.0471515  
H464     H      0.199830000000     0.597460000000     0.205990000000     0.046676   
H465     H      0.164250000000     0.587200000000     0.224580000000     0.0471972  
H466     H      0.132220000000     0.624410000000     0.195190000000     0.0471858  
H467     H      0.223420000000     0.611480000000     0.173470000000     0.0461489  
H468     H      0.188750000000     0.624310000000     0.138400000000     0.0472385  
H469     H      0.128110000000     0.600320000000     0.189230000000     0.0477411  
H470     H      0.167410000000     0.611620000000     0.229690000000     0.0461386  
H471     H      0.132440000000     0.682600000000     0.370480000000     0.0471012  
H472     H      0.122790000000     0.716490000000     0.334320000000     0.0458605  
H473     H      0.109260000000     0.693110000000     0.301360000000     0.046736   
H474     H      0.122450000000     0.645610000000     0.351360000000     0.0471007  
H475     H      0.132600000000     0.625380000000     0.314660000000     0.0468376  
H476     H      0.098010000000     0.658330000000     0.283050000000     0.0475161  
H477     H      0.107670000000     0.677450000000     0.373280000000     0.0478565  
H478     H      0.097710000000     0.712360000000     0.335910000000     0.0472322  
H479     H      0.123110000000     0.659760000000     0.279010000000     0.0459379  
H480     H      0.107810000000     0.622760000000     0.319880000000     0.0479442  
H481     H      0.871450000000     0.716200000000     0.334430000000     0.0459236  
H482     H      0.861950000000     0.682300000000     0.370610000000     0.0471304  
H483     H      0.871980000000     0.645330000000     0.351460000000     0.0471337  
H484     H      0.884960000000     0.692860000000     0.301430000000     0.0466419  
H485     H      0.871140000000     0.659470000000     0.279110000000     0.0459361  
H486     H      0.886610000000     0.622510000000     0.319950000000     0.0480176  
H487     H      0.896530000000     0.712130000000     0.335970000000     0.0473358  
H488     H      0.886730000000     0.677190000000     0.373360000000     0.0478921  
H489     H      0.861800000000     0.625070000000     0.314780000000     0.0468709  
H490     H      0.896250000000     0.658110000000     0.283100000000     0.0475364  
H491     H      0.035680000000     0.582500000000     0.275340000000     0.0470821  
H492     H      0.036210000000     0.598550000000     0.225920000000     0.0474642  
H493     H      0.997180000000     0.613600000000     0.220950000000     0.0471411  
H494     H      0.997220000000     0.591890000000     0.288090000000     0.0466212  
H495     H      0.958780000000     0.582420000000     0.275370000000     0.0471465  
H496     H      0.957260000000     0.622180000000     0.234310000000     0.0468139  
H497     H      0.036610000000     0.606470000000     0.282910000000     0.0459344  
H498     H      0.037090000000     0.622260000000     0.234280000000     0.0468041  
H499     H      0.958170000000     0.598470000000     0.225950000000     0.0475152  
H500     H      0.957810000000     0.606390000000     0.282940000000     0.0459755  
H501     H      0.897280000000     0.271990000000     0.335650000000     0.0473299  
H502     H      0.886990000000     0.307180000000     0.372630000000     0.0479071  
H503     H      0.872220000000     0.338790000000     0.350330000000     0.0471986  
H504     H      0.885880000000     0.290930000000     0.300820000000     0.0466901  
H505     H      0.897060000000     0.325640000000     0.282240000000     0.0473565  
H506     H      0.862170000000     0.358660000000     0.313460000000     0.0469399  
H507     H      0.872230000000     0.267790000000     0.333900000000     0.0459262  
H508     H      0.862250000000     0.301960000000     0.369720000000     0.0471178  
H509     H      0.886930000000     0.361440000000     0.318720000000     0.0481415  
H510     H      0.871980000000     0.324020000000     0.278110000000     0.0458466  
H511     H      0.888100000000     0.530580000000     0.227740000000     0.0462946  
H512     H      0.867720000000     0.530770000000     0.275020000000     0.0469462  
H513     H      0.875470000000     0.491560000000     0.288750000000     0.0471023  
H514     H      0.903370000000     0.492050000000     0.223820000000     0.0466247  
H515     H      0.888050000000     0.453470000000     0.227150000000     0.0462552  
H516     H      0.891080000000     0.452780000000     0.284610000000     0.0472553  
H517     H      0.911530000000     0.530190000000     0.237700000000     0.0467826  
H518     H      0.891040000000     0.530410000000     0.285220000000     0.0471545  
H519     H      0.867740000000     0.452560000000     0.274440000000     0.0469354  
H520     H      0.911500000000     0.453700000000     0.237060000000     0.0467263  
H521     H      0.097830000000     0.325880000000     0.282170000000     0.0473354  
H522     H      0.107870000000     0.361690000000     0.318670000000     0.0482099  
H523     H      0.122470000000     0.339050000000     0.350320000000     0.0472079  
H524     H      0.108950000000     0.291180000000     0.300780000000     0.0466619  
H525     H      0.097440000000     0.272250000000     0.335590000000     0.0472653  
H526     H      0.132380000000     0.302240000000     0.369740000000     0.0471029  
H527     H      0.122920000000     0.324270000000     0.278100000000     0.0458161  
H528     H      0.132630000000     0.358910000000     0.313460000000     0.0470059  
H529     H      0.107630000000     0.307440000000     0.372590000000     0.0478778  
H530     H      0.122490000000     0.268050000000     0.333900000000     0.0459063  
H531     H      0.224800000000     0.373270000000     0.173540000000     0.0462139  
H532     H      0.190720000000     0.359500000000     0.138310000000     0.0473444  
H533     H      0.153000000000     0.368590000000     0.157050000000     0.0471302  
H534     H      0.200650000000     0.387460000000     0.205590000000     0.0466659  
H535     H      0.168130000000     0.373220000000     0.229100000000     0.0461207  
H536     H      0.129170000000     0.383600000000     0.188070000000     0.0476333  
H537     H      0.219360000000     0.397560000000     0.169980000000     0.0470494  
H538     H      0.184460000000     0.383440000000     0.133810000000     0.0475474  
H539     H      0.133450000000     0.359620000000     0.194340000000     0.0470559  
H540     H      0.164710000000     0.397530000000     0.223650000000     0.0471144  
H541     H      0.957520000000     0.362090000000     0.232300000000     0.0467462  
H542     H      0.958080000000     0.377360000000     0.281130000000     0.0460336  
H543     H      0.997410000000     0.391920000000     0.286400000000     0.046586   
H544     H      0.997420000000     0.370940000000     0.219020000000     0.0471058  
H545     H      0.037350000000     0.362210000000     0.232270000000     0.0466992  
H546     H      0.035870000000     0.401530000000     0.273760000000     0.0470789  
H547     H      0.958300000000     0.385900000000     0.224230000000     0.0473683  
H548     H      0.958920000000     0.401400000000     0.273800000000     0.0471727  
H549     H      0.036780000000     0.377490000000     0.281100000000     0.0459827  
H550     H      0.036500000000     0.386020000000     0.224200000000     0.0473134  
H551     H      0.126850000000     0.531060000000     0.274950000000     0.0468687  
H552     H      0.106480000000     0.530810000000     0.227670000000     0.0463271  
H553     H      0.091280000000     0.492260000000     0.223760000000     0.0466804  
H554     H      0.119180000000     0.491830000000     0.288680000000     0.0470246  
H555     H      0.126990000000     0.452840000000     0.274370000000     0.0469664  
H556     H      0.083220000000     0.453890000000     0.237000000000     0.0466933  
H557     H      0.103530000000     0.530640000000     0.285150000000     0.0470363  
H558     H      0.083040000000     0.530380000000     0.237620000000     0.0467871  
H559     H      0.106680000000     0.453700000000     0.227090000000     0.0462679  
H560     H      0.103650000000     0.453020000000     0.284550000000     0.0472245  
H561     H      0.626780000000     0.158060000000     0.784240000000     0.0455096  
H562     H      0.627730000000     0.122800000000     0.820020000000     0.0470467  
H563     H      0.613000000000     0.143220000000     0.855190000000     0.0467643  
H564     H      0.612720000000     0.192250000000     0.804970000000     0.0467277  
H565     H      0.623070000000     0.213770000000     0.840200000000     0.0467286  
H566     H      0.597340000000     0.176400000000     0.875040000000     0.0465201  
H567     H      0.601320000000     0.158760000000     0.784230000000     0.0476991  
H568     H      0.602310000000     0.121930000000     0.821300000000     0.0479216  
H569     H      0.622650000000     0.178530000000     0.876840000000     0.0452716  
H570     H      0.597750000000     0.212330000000     0.837820000000     0.0485086  
H571     H      0.625220000000     0.246260000000     0.041060000000     0.047404   
H572     H      0.577590000000     0.223610000000     0.041430000000     0.0469393  
H573     H      0.575290000000     0.207850000000     0.003440000000     0.0462073  
H574     H      0.638980000000     0.237980000000     0.003410000000     0.0465292  
H575     H      0.625190000000     0.246260000000     0.965770000000     0.0473735  
H576     H      0.589710000000     0.201680000000     0.962830000000     0.0459979  
H577     H      0.635070000000     0.223240000000     0.043760000000     0.0458089  
H578     H      0.589750000000     0.201680000000     0.044050000000     0.0460417  
H579     H      0.577560000000     0.223610000000     0.965430000000     0.0468979  
H580     H      0.635040000000     0.223240000000     0.963090000000     0.0457944  
H581     H      0.315230000000     0.362940000000     0.108380000000     0.0480549  
H582     H      0.278100000000     0.326110000000     0.107910000000     0.0477874  
H583     H      0.298940000000     0.292690000000     0.119280000000     0.0466938  
H584     H      0.349190000000     0.341710000000     0.118890000000     0.0467646  
H585     H      0.368900000000     0.308470000000     0.103210000000     0.046513   
H586     H      0.334270000000     0.271200000000     0.129380000000     0.0467145  
H587     H      0.314120000000     0.362220000000     0.133810000000     0.0469714  
H588     H      0.278330000000     0.326990000000     0.133360000000     0.0454915  
H589     H      0.331660000000     0.272550000000     0.104100000000     0.048483   
H590     H      0.370930000000     0.306420000000     0.128500000000     0.0453026  
H591     H      0.457060000000     0.261670000000     0.140820000000     0.0457884  
H592     H      0.456840000000     0.283020000000     0.095410000000     0.0460507  
H593     H      0.497450000000     0.276690000000     0.081000000000     0.0462199  
H594     H      0.497380000000     0.246850000000     0.144800000000     0.0465145  
H595     H      0.537750000000     0.261480000000     0.140820000000     0.0458544  
H596     H      0.535450000000     0.260860000000     0.083360000000     0.0469153  
H597     H      0.459700000000     0.238600000000     0.131080000000     0.0474014  
H598     H      0.459390000000     0.261020000000     0.083360000000     0.0469587  
H599     H      0.538070000000     0.282850000000     0.095410000000     0.0460334  
H600     H      0.535030000000     0.238430000000     0.131060000000     0.04743    
H601     H      0.334210000000     0.271040000000     0.877330000000     0.0466922  
H602     H      0.370860000000     0.306270000000     0.878150000000     0.0453034  
H603     H      0.349130000000     0.341560000000     0.887780000000     0.0468076  
H604     H      0.298890000000     0.292540000000     0.887470000000     0.046719   
H605     H      0.278260000000     0.326820000000     0.873420000000     0.0454911  
H606     H      0.315180000000     0.362810000000     0.898320000000     0.048082   
H607     H      0.331620000000     0.272410000000     0.902620000000     0.0484506  
H608     H      0.368860000000     0.308330000000     0.903440000000     0.0465208  
H609     H      0.314050000000     0.362050000000     0.872890000000     0.0469959  
H610     H      0.278050000000     0.325970000000     0.898860000000     0.0477856  
H611     H      0.371650000000     0.214010000000     0.840110000000     0.0467035  
H612     H      0.371970000000     0.178780000000     0.876750000000     0.0453124  
H613     H      0.381590000000     0.143440000000     0.855110000000     0.0467657  
H614     H      0.382000000000     0.192470000000     0.804900000000     0.0467163  
H615     H      0.367920000000     0.158320000000     0.784150000000     0.0455012  
H616     H      0.392280000000     0.122130000000     0.821230000000     0.0478909  
H617     H      0.396970000000     0.212520000000     0.837760000000     0.0484738  
H618     H      0.397270000000     0.176600000000     0.874980000000     0.0465175  
H619     H      0.366860000000     0.123050000000     0.819940000000     0.0470105  
H620     H      0.393380000000     0.158950000000     0.784160000000     0.047697   
H621     H      0.359680000000     0.223610000000     0.043710000000     0.04585    
H622     H      0.404980000000     0.201970000000     0.043990000000     0.0460224  
H623     H      0.419410000000     0.208090000000     0.003370000000     0.0462179  
H624     H      0.355770000000     0.238310000000     0.003360000000     0.0465254  
H625     H      0.359660000000     0.223530000000     0.963050000000     0.0457764  
H626     H      0.417140000000     0.223810000000     0.965340000000     0.0469349  
H627     H      0.369580000000     0.246600000000     0.040990000000     0.047452   
H628     H      0.417160000000     0.223880000000     0.041360000000     0.0469405  
H629     H      0.404950000000     0.201900000000     0.962780000000     0.0460177  
H630     H      0.369550000000     0.246530000000     0.965700000000     0.0473875  
H631     H      0.535380000000     0.260810000000     0.923430000000     0.0468692  
H632     H      0.535010000000     0.238370000000     0.875730000000     0.047394   
H633     H      0.497370000000     0.246750000000     0.861970000000     0.046503   
H634     H      0.497380000000     0.276610000000     0.925770000000     0.0461891  
H635     H      0.459320000000     0.260910000000     0.923390000000     0.04689    
H636     H      0.457050000000     0.261540000000     0.865930000000     0.045793   
H637     H      0.538010000000     0.282790000000     0.911380000000     0.0460156  
H638     H      0.537730000000     0.261420000000     0.865970000000     0.0458122  
H639     H      0.459680000000     0.238470000000     0.875680000000     0.0473665  
H640     H      0.456780000000     0.282900000000     0.911330000000     0.0460335  
H641     H      0.362310000000     0.860700000000     0.311920000000     0.0471748  
H642     H      0.327090000000     0.872810000000     0.277170000000     0.0461532  
H643     H      0.294350000000     0.886640000000     0.300650000000     0.0466742  
H644     H      0.342830000000     0.869980000000     0.349210000000     0.0471849  
H645     H      0.305470000000     0.860470000000     0.368500000000     0.0471631  
H646     H      0.275670000000     0.897040000000     0.336100000000     0.047206   
H647     H      0.366020000000     0.884870000000     0.317770000000     0.0476012  
H648     H      0.329870000000     0.897290000000     0.282180000000     0.0471933  
H649     H      0.270820000000     0.872530000000     0.333260000000     0.0460412  
H650     H      0.311250000000     0.884650000000     0.372340000000     0.0478519  
H651     H      0.306560000000     0.125710000000     0.367570000000     0.0470367  
H652     H      0.271610000000     0.113020000000     0.332790000000     0.0460273  
H653     H      0.294940000000     0.098920000000     0.300030000000     0.0466645  
H654     H      0.343760000000     0.116560000000     0.347870000000     0.0471737  
H655     H      0.362630000000     0.125870000000     0.310250000000     0.0472724  
H656     H      0.330400000000     0.088580000000     0.281190000000     0.0471449  
H657     H      0.312610000000     0.101620000000     0.371490000000     0.0477339  
H658     H      0.276780000000     0.088600000000     0.335780000000     0.047116   
H659     H      0.327220000000     0.112980000000     0.276040000000     0.0462074  
H660     H      0.366800000000     0.101800000000     0.316270000000     0.047545   
H661     H      0.372020000000     0.178910000000     0.129970000000     0.0453198  
H662     H      0.371640000000     0.214150000000     0.166590000000     0.0467408  
H663     H      0.381990000000     0.192640000000     0.201830000000     0.0466855  
H664     H      0.381660000000     0.143590000000     0.151630000000     0.0468144  
H665     H      0.366930000000     0.123190000000     0.186800000000     0.0470294  
H666     H      0.393380000000     0.159140000000     0.222580000000     0.0477417  
H667     H      0.397330000000     0.176750000000     0.131760000000     0.0465289  
H668     H      0.396950000000     0.212690000000     0.168960000000     0.0485315  
H669     H      0.367920000000     0.158470000000     0.222570000000     0.0455185  
H670     H      0.392350000000     0.122310000000     0.185520000000     0.0479453  
H671     H      0.388720000000     0.954490000000     0.278890000000     0.04632    
H672     H      0.366670000000     0.953690000000     0.232390000000     0.0468045  
H673     H      0.373760000000     0.992740000000     0.217950000000     0.0470397  
H674     H      0.404230000000     0.993090000000     0.281710000000     0.0466441  
H675     H      0.388900000000     0.031680000000     0.278460000000     0.0459704  
H676     H      0.389390000000     0.031540000000     0.220910000000     0.0471537  
H677     H      0.411790000000     0.954780000000     0.268130000000     0.0467024  
H678     H      0.389610000000     0.954000000000     0.221350000000     0.0472576  
H679     H      0.366540000000     0.031930000000     0.232140000000     0.0468973  
H680     H      0.411910000000     0.031230000000     0.267550000000     0.0467542  
H681     H      0.627850000000     0.122910000000     0.186900000000     0.0470579  
H682     H      0.626890000000     0.158190000000     0.222660000000     0.0454973  
H683     H      0.612800000000     0.192360000000     0.201900000000     0.0467285  
H684     H      0.613090000000     0.143300000000     0.151720000000     0.0467746  
H685     H      0.622710000000     0.178610000000     0.130040000000     0.0452884  
H686     H      0.597800000000     0.212410000000     0.169040000000     0.0485013  
H687     H      0.602430000000     0.122030000000     0.185620000000     0.0479737  
H688     H      0.601430000000     0.158880000000     0.222670000000     0.0477027  
H689     H      0.623110000000     0.213870000000     0.166660000000     0.0467255  
H690     H      0.597400000000     0.176460000000     0.131850000000     0.0465155  
H691     H      0.723090000000     0.112710000000     0.332910000000     0.046079   
H692     H      0.688160000000     0.125480000000     0.367670000000     0.0470075  
H693     H      0.650940000000     0.116330000000     0.347980000000     0.0470851  
H694     H      0.699760000000     0.098590000000     0.300160000000     0.0466891  
H695     H      0.667500000000     0.112650000000     0.276150000000     0.0462366  
H696     H      0.627900000000     0.101560000000     0.316380000000     0.0475987  
H697     H      0.717900000000     0.088300000000     0.335930000000     0.047172   
H698     H      0.682080000000     0.101390000000     0.371620000000     0.0477102  
H699     H      0.632100000000     0.125610000000     0.310340000000     0.0473346  
H700     H      0.664290000000     0.088260000000     0.281330000000     0.0471564  
H701     H      0.459000000000     0.083890000000     0.230730000000     0.0472886  
H702     H      0.458300000000     0.100530000000     0.279990000000     0.0474161  
H703     H      0.497360000000     0.115640000000     0.284850000000     0.047004   
H704     H      0.497370000000     0.093170000000     0.217960000000     0.04653    
H705     H      0.535690000000     0.083770000000     0.230790000000     0.0473013  
H706     H      0.537400000000     0.124000000000     0.271360000000     0.0464013  
H707     H      0.458000000000     0.107780000000     0.222910000000     0.0457243  
H708     H      0.457360000000     0.124130000000     0.271300000000     0.0464218  
H709     H      0.536380000000     0.100410000000     0.280040000000     0.0473405  
H710     H      0.536770000000     0.107650000000     0.222960000000     0.0457608  
H711     H      0.718640000000     0.896690000000     0.336230000000     0.0473047  
H712     H      0.683020000000     0.884430000000     0.372480000000     0.0478716  
H713     H      0.651430000000     0.869770000000     0.349380000000     0.0471549  
H714     H      0.699960000000     0.886260000000     0.300810000000     0.0467473  
H715     H      0.664480000000     0.896930000000     0.282300000000     0.047167   
H716     H      0.631960000000     0.860450000000     0.312090000000     0.047179   
H717     H      0.723460000000     0.872180000000     0.333460000000     0.0460969  
H718     H      0.688770000000     0.860240000000     0.368710000000     0.0471673  
H719     H      0.628280000000     0.884640000000     0.317890000000     0.0476157  
H720     H      0.667210000000     0.872440000000     0.277340000000     0.0461134  
H721     H      0.458120000000     0.886520000000     0.281190000000     0.0475229  
H722     H      0.458730000000     0.902610000000     0.231810000000     0.0470857  
H723     H      0.497200000000     0.893160000000     0.219080000000     0.0466163  
H724     H      0.497140000000     0.871380000000     0.286200000000     0.0471088  
H725     H      0.536200000000     0.886420000000     0.281230000000     0.0475512  
H726     H      0.536560000000     0.878550000000     0.224240000000     0.0460185  
H727     H      0.457230000000     0.862810000000     0.272820000000     0.0468433  
H728     H      0.457800000000     0.878660000000     0.224190000000     0.0459684  
H729     H      0.535680000000     0.902510000000     0.231840000000     0.0471269  
H730     H      0.537020000000     0.862710000000     0.272860000000     0.0468524  
H731     H      0.582680000000     0.954570000000     0.268240000000     0.0467263  
H732     H      0.604860000000     0.953750000000     0.221460000000     0.0472754  
H733     H      0.620790000000     0.992460000000     0.218070000000     0.0470372  
H734     H      0.590310000000     0.992860000000     0.281820000000     0.0466445  
H735     H      0.582700000000     0.031010000000     0.267660000000     0.0467427  
H736     H      0.628080000000     0.031640000000     0.232260000000     0.0468585  
H737     H      0.605750000000     0.954240000000     0.279000000000     0.0463082  
H738     H      0.627810000000     0.953400000000     0.232500000000     0.0467822  
H739     H      0.605230000000     0.031280000000     0.221020000000     0.0470967  
H740     H      0.605700000000     0.031430000000     0.278570000000     0.0459766  
H741     H      0.811610000000     0.599980000000     0.134470000000     0.0475375  
H742     H      0.776190000000     0.586690000000     0.170400000000     0.0471366  
H743     H      0.794570000000     0.597030000000     0.206090000000     0.046712   
H744     H      0.842950000000     0.614890000000     0.157870000000     0.0471603  
H745     H      0.866270000000     0.600080000000     0.189310000000     0.0477749  
H746     H      0.826960000000     0.611200000000     0.229800000000     0.046186   
H747     H      0.805570000000     0.624050000000     0.138550000000     0.0471946  
H748     H      0.770930000000     0.611070000000     0.173610000000     0.0461753  
H749     H      0.830180000000     0.586810000000     0.224640000000     0.0472346  
H750     H      0.862110000000     0.624150000000     0.195310000000     0.0472058  
H751     H      0.866270000000     0.599950000000     0.817650000000     0.047753   
H752     H      0.830160000000     0.586720000000     0.782320000000     0.047195   
H753     H      0.794560000000     0.596960000000     0.800890000000     0.0467091  
H754     H      0.842980000000     0.614770000000     0.849090000000     0.0471693  
H755     H      0.811620000000     0.599870000000     0.872500000000     0.0475357  
H756     H      0.770950000000     0.611010000000     0.833370000000     0.0461398  
H757     H      0.862140000000     0.624020000000     0.811650000000     0.047211   
H758     H      0.826960000000     0.611120000000     0.777160000000     0.0461379  
H759     H      0.776170000000     0.586630000000     0.836570000000     0.0470865  
H760     H      0.805610000000     0.623950000000     0.868430000000     0.0471849  
H761     H      0.724970000000     0.583530000000     0.041890000000     0.0472099  
H762     H      0.774730000000     0.598710000000     0.042470000000     0.0475908  
H763     H      0.779980000000     0.613700000000     0.003490000000     0.0470816  
H764     H      0.712420000000     0.593190000000     0.003490000000     0.046596   
H765     H      0.724990000000     0.583480000000     0.965110000000     0.0471372  
H766     H      0.766780000000     0.622500000000     0.963540000000     0.0467344  
H767     H      0.717870000000     0.607640000000     0.042910000000     0.0459254  
H768     H      0.766760000000     0.622560000000     0.043430000000     0.0467849  
H769     H      0.774740000000     0.598660000000     0.964530000000     0.0475224  
H770     H      0.717880000000     0.607580000000     0.964060000000     0.0458667  
H771     H      0.660580000000     0.270840000000     0.129380000000     0.0467033  
H772     H      0.623930000000     0.306070000000     0.128620000000     0.0453194  
H773     H      0.645650000000     0.341370000000     0.119030000000     0.0468272  
H774     H      0.695900000000     0.292350000000     0.119250000000     0.046683   
H775     H      0.716530000000     0.326620000000     0.133340000000     0.0455029  
H776     H      0.679590000000     0.362630000000     0.108500000000     0.0481091  
H777     H      0.663140000000     0.272240000000     0.104090000000     0.0484949  
H778     H      0.625910000000     0.308160000000     0.103340000000     0.046545   
H779     H      0.680740000000     0.361850000000     0.133920000000     0.0470204  
H780     H      0.716720000000     0.325800000000     0.107900000000     0.0477961  
H781     H      0.826710000000     0.372900000000     0.229140000000     0.0461966  
H782     H      0.861400000000     0.359370000000     0.194360000000     0.0470458  
H783     H      0.841840000000     0.368370000000     0.157080000000     0.0471067  
H784     H      0.794170000000     0.387120000000     0.205650000000     0.0466997  
H785     H      0.770040000000     0.372950000000     0.173590000000     0.046267   
H786     H      0.810360000000     0.383220000000     0.133860000000     0.0474533  
H787     H      0.830100000000     0.397210000000     0.223720000000     0.0471901  
H788     H      0.865650000000     0.383360000000     0.188110000000     0.047644   
H789     H      0.804140000000     0.359260000000     0.138330000000     0.0472393  
H790     H      0.775450000000     0.397250000000     0.170050000000     0.0471095  
H791     H      0.714560000000     0.453350000000     0.110950000000     0.0471588  
H792     H      0.760850000000     0.453700000000     0.087760000000     0.046652   
H793     H      0.775050000000     0.491930000000     0.095110000000     0.0466435  
H794     H      0.711740000000     0.492210000000     0.126540000000     0.0470612  
H795     H      0.714860000000     0.530990000000     0.110600000000     0.0471825  
H796     H      0.772430000000     0.530500000000     0.110610000000     0.0463903  
H797     H      0.726100000000     0.453120000000     0.133640000000     0.0469636  
H798     H      0.772140000000     0.453410000000     0.110570000000     0.0459949  
H799     H      0.761260000000     0.530270000000     0.087740000000     0.0466419  
H800     H      0.726200000000     0.531240000000     0.133390000000     0.0468246  
H801     H      0.810320000000     0.383120000000     0.873000000000     0.0475077  
H802     H      0.775410000000     0.397180000000     0.836810000000     0.047058   
H803     H      0.794110000000     0.387050000000     0.801210000000     0.046659   
H804     H      0.841780000000     0.368250000000     0.849760000000     0.0471311  
H805     H      0.865600000000     0.383240000000     0.818730000000     0.047584   
H806     H      0.826630000000     0.372800000000     0.777710000000     0.0460954  
H807     H      0.804070000000     0.359170000000     0.868520000000     0.047316   
H808     H      0.769970000000     0.372890000000     0.833280000000     0.0462199  
H809     H      0.830040000000     0.397120000000     0.783130000000     0.0471038  
H810     H      0.861320000000     0.359250000000     0.812480000000     0.0469963  
H811     H      0.716490000000     0.326580000000     0.873500000000     0.0454675  
H812     H      0.680700000000     0.361820000000     0.872960000000     0.0470152  
H813     H      0.645610000000     0.341330000000     0.887840000000     0.0467678  
H814     H      0.695850000000     0.292300000000     0.887570000000     0.0466743  
H815     H      0.660530000000     0.270810000000     0.877440000000     0.0466904  
H816     H      0.625870000000     0.308110000000     0.903510000000     0.04651    
H817     H      0.716680000000     0.325730000000     0.898950000000     0.0477618  
H818     H      0.679550000000     0.362570000000     0.898380000000     0.0480849  
H819     H      0.623880000000     0.306040000000     0.878220000000     0.0452697  
H820     H      0.663100000000     0.272180000000     0.902720000000     0.0484731  
H821     H      0.773860000000     0.384320000000     0.042400000000     0.0474138  
H822     H      0.724170000000     0.399860000000     0.041700000000     0.0474095  
H823     H      0.711590000000     0.390170000000     0.003440000000     0.0465598  
H824     H      0.779010000000     0.369230000000     0.003440000000     0.0469711  
H825     H      0.773840000000     0.384290000000     0.964450000000     0.0474032  
H826     H      0.716930000000     0.375760000000     0.964030000000     0.0457208  
H827     H      0.765680000000     0.360560000000     0.043500000000     0.046419   
H828     H      0.716940000000     0.375800000000     0.042870000000     0.0457273  
H829     H      0.724150000000     0.399820000000     0.965160000000     0.0473933  
H830     H      0.765660000000     0.360520000000     0.963400000000     0.0463706  
H831     H      0.772430000000     0.530430000000     0.896350000000     0.0463482  
H832     H      0.726200000000     0.531200000000     0.873580000000     0.0468814  
H833     H      0.711730000000     0.492170000000     0.880390000000     0.047015   
H834     H      0.775050000000     0.491860000000     0.911810000000     0.0465682  
H835     H      0.772130000000     0.453350000000     0.896310000000     0.0460282  
H836     H      0.714550000000     0.453300000000     0.895950000000     0.0471647  
H837     H      0.761260000000     0.530190000000     0.919220000000     0.046611   
H838     H      0.714860000000     0.530930000000     0.896370000000     0.0472375  
H839     H      0.726090000000     0.453080000000     0.873260000000     0.0469784  
H840     H      0.760840000000     0.453610000000     0.919130000000     0.0467012  
H841     H      0.328090000000     0.716730000000     0.129130000000     0.0459705  
H842     H      0.364250000000     0.682760000000     0.138520000000     0.0471535  
H843     H      0.345030000000     0.645830000000     0.128460000000     0.0471617  
H844     H      0.295000000000     0.693430000000     0.115720000000     0.0466611  
H845     H      0.272680000000     0.660020000000     0.129570000000     0.0458725  
H846     H      0.313470000000     0.623090000000     0.113860000000     0.0481901  
H847     H      0.329550000000     0.712660000000     0.104050000000     0.0473502  
H848     H      0.366930000000     0.677670000000     0.113730000000     0.0478773  
H849     H      0.308360000000     0.625580000000     0.138670000000     0.0469332  
H850     H      0.276580000000     0.658740000000     0.104440000000     0.0474387  
H851     H      0.396790000000     0.826690000000     0.223850000000     0.047442   
H852     H      0.386830000000     0.862250000000     0.187080000000     0.0480453  
H853     H      0.372210000000     0.839390000000     0.155580000000     0.0471759  
H854     H      0.385690000000     0.791890000000     0.205490000000     0.0467561  
H855     H      0.397270000000     0.772730000000     0.170840000000     0.0472605  
H856     H      0.362290000000     0.802410000000     0.136450000000     0.0471999  
H857     H      0.371690000000     0.825140000000     0.227910000000     0.0459277  
H858     H      0.362050000000     0.859540000000     0.192290000000     0.046892   
H859     H      0.387040000000     0.807610000000     0.133570000000     0.0477929  
H860     H      0.372220000000     0.768500000000     0.172570000000     0.0459633  
H861     H      0.397350000000     0.772600000000     0.836050000000     0.0472894  
H862     H      0.387000000000     0.807470000000     0.873280000000     0.0477599  
H863     H      0.372160000000     0.839220000000     0.851230000000     0.0471666  
H864     H      0.385820000000     0.791720000000     0.801360000000     0.0466993  
H865     H      0.396900000000     0.826540000000     0.783010000000     0.0474166  
H866     H      0.362030000000     0.859330000000     0.814500000000     0.0468858  
H867     H      0.372320000000     0.768320000000     0.834270000000     0.0459644  
H868     H      0.362260000000     0.802230000000     0.870360000000     0.0471426  
H869     H      0.386800000000     0.862100000000     0.819740000000     0.0480376  
H870     H      0.371810000000     0.824930000000     0.778920000000     0.0459281  
H871     H      0.313480000000     0.622960000000     0.892930000000     0.0481853  
H872     H      0.276560000000     0.658610000000     0.902270000000     0.047414   
H873     H      0.295010000000     0.693290000000     0.891040000000     0.0466578  
H874     H      0.345060000000     0.645690000000     0.878400000000     0.0471638  
H875     H      0.366940000000     0.677530000000     0.893180000000     0.0478378  
H876     H      0.328120000000     0.716580000000     0.877700000000     0.0459781  
H877     H      0.308410000000     0.625440000000     0.868110000000     0.0468927  
H878     H      0.272710000000     0.659870000000     0.877130000000     0.0458266  
H879     H      0.329550000000     0.712520000000     0.902780000000     0.0473684  
H880     H      0.364300000000     0.682610000000     0.868380000000     0.0471485  
H881     H      0.365050000000     0.761500000000     0.043240000000     0.0467693  
H882     H      0.384440000000     0.714640000000     0.042780000000     0.0459726  
H883     H      0.399530000000     0.710590000000     0.003470000000     0.0466117  
H884     H      0.372890000000     0.775180000000     0.003430000000     0.047093   
H885     H      0.365020000000     0.761430000000     0.963640000000     0.0467324  
H886     H      0.408090000000     0.723770000000     0.964900000000     0.0469039  
H887     H      0.388480000000     0.771300000000     0.042500000000     0.0474217  
H888     H      0.408120000000     0.723840000000     0.042000000000     0.0469476  
H889     H      0.384390000000     0.714590000000     0.964160000000     0.0459084  
H890     H      0.388450000000     0.771240000000     0.964340000000     0.0473989  
H891     H      0.607590000000     0.861980000000     0.187190000000     0.0479987  
H892     H      0.597450000000     0.826450000000     0.223940000000     0.0474687  
H893     H      0.608540000000     0.791620000000     0.205620000000     0.0467901  
H894     H      0.622270000000     0.839080000000     0.155740000000     0.0471494  
H895     H      0.607450000000     0.807330000000     0.133690000000     0.047789   
H896     H      0.622070000000     0.768200000000     0.172750000000     0.0460006  
H897     H      0.632350000000     0.859230000000     0.192480000000     0.0468665  
H898     H      0.622520000000     0.824850000000     0.228070000000     0.0459845  
H899     H      0.597040000000     0.772470000000     0.170940000000     0.0473065  
H900     H      0.632180000000     0.802080000000     0.136660000000     0.0471968  
H901     H      0.721650000000     0.659660000000     0.129840000000     0.0459281  
H902     H      0.685940000000     0.625210000000     0.138780000000     0.0468381  
H903     H      0.649290000000     0.645500000000     0.128530000000     0.0471332  
H904     H      0.699360000000     0.693110000000     0.116010000000     0.0467372  
H905     H      0.666260000000     0.716390000000     0.129380000000     0.0459063  
H906     H      0.627430000000     0.677380000000     0.113810000000     0.0478597  
H907     H      0.717800000000     0.658450000000     0.104700000000     0.0475228  
H908     H      0.680880000000     0.622790000000     0.113950000000     0.0481145  
H909     H      0.630060000000     0.682410000000     0.138610000000     0.0471518  
H910     H      0.664850000000     0.712380000000     0.104290000000     0.0473174  
H911     H      0.458610000000     0.760660000000     0.091460000000     0.0468474  
H912     H      0.458020000000     0.713580000000     0.111910000000     0.047391   
H913     H      0.497150000000     0.709860000000     0.127550000000     0.047092   
H914     H      0.497260000000     0.773970000000     0.099750000000     0.0465809  
H915     H      0.535870000000     0.760540000000     0.091480000000     0.0468291  
H916     H      0.536930000000     0.723630000000     0.135210000000     0.04678    
H917     H      0.457970000000     0.770300000000     0.114950000000     0.0459648  
H918     H      0.457400000000     0.723750000000     0.135180000000     0.0468017  
H919     H      0.536310000000     0.713470000000     0.111940000000     0.0473873  
H920     H      0.536520000000     0.770190000000     0.114970000000     0.0459442  
H921     H      0.632290000000     0.859130000000     0.814610000000     0.0468983  
H922     H      0.622470000000     0.824720000000     0.779030000000     0.045951   
H923     H      0.608490000000     0.791510000000     0.801500000000     0.046735   
H924     H      0.622220000000     0.839000000000     0.851350000000     0.0471503  
H925     H      0.632140000000     0.802010000000     0.870450000000     0.0471792  
H926     H      0.597010000000     0.772370000000     0.836190000000     0.0472859  
H927     H      0.607530000000     0.861880000000     0.819890000000     0.0480034  
H928     H      0.597390000000     0.826330000000     0.783170000000     0.0474296  
H929     H      0.622050000000     0.768110000000     0.834380000000     0.0459819  
H930     H      0.607410000000     0.807250000000     0.873420000000     0.047775   
H931     H      0.717830000000     0.658390000000     0.902330000000     0.0474538  
H932     H      0.680900000000     0.622720000000     0.893070000000     0.0481229  
H933     H      0.649300000000     0.645440000000     0.878550000000     0.0471029  
H934     H      0.699370000000     0.693060000000     0.891070000000     0.0466784  
H935     H      0.664860000000     0.712300000000     0.902840000000     0.0473386  
H936     H      0.630060000000     0.682360000000     0.868520000000     0.0471858  
H937     H      0.721660000000     0.659620000000     0.877180000000     0.0458574  
H938     H      0.685950000000     0.625170000000     0.868240000000     0.046835   
H939     H      0.627450000000     0.677310000000     0.893320000000     0.0478783  
H940     H      0.666250000000     0.716340000000     0.877750000000     0.0459581  
H941     H      0.458020000000     0.713470000000     0.895090000000     0.0473846  
H942     H      0.458570000000     0.760560000000     0.915520000000     0.0467851  
H943     H      0.497230000000     0.773860000000     0.907300000000     0.046568   
H944     H      0.497180000000     0.709740000000     0.879520000000     0.0470769  
H945     H      0.536310000000     0.713360000000     0.895200000000     0.047335   
H946     H      0.536520000000     0.770080000000     0.892150000000     0.0460129  
H947     H      0.457450000000     0.723630000000     0.871820000000     0.0468117  
H948     H      0.457970000000     0.770190000000     0.892020000000     0.0459204  
H949     H      0.535830000000     0.760430000000     0.915640000000     0.0468585  
H950     H      0.536970000000     0.723520000000     0.871930000000     0.0467888  
H951     H      0.629450000000     0.761170000000     0.963760000000     0.046756   
H952     H      0.610040000000     0.714330000000     0.964270000000     0.0458426  
H953     H      0.594910000000     0.710340000000     0.003580000000     0.0466003  
H954     H      0.621610000000     0.774900000000     0.003560000000     0.0471311  
H955     H      0.629440000000     0.761200000000     0.043370000000     0.0468348  
H956     H      0.586340000000     0.723570000000     0.042130000000     0.0469072  
H957     H      0.606030000000     0.770990000000     0.964480000000     0.0474434  
H958     H      0.586350000000     0.723540000000     0.965030000000     0.046852   
H959     H      0.610030000000     0.714370000000     0.042900000000     0.0459304  
H960     H      0.606020000000     0.771020000000     0.042640000000     0.0474893  
In1      In     0.601940000000     0.742240000000     0.898950000000     2.42693    
In2      In     0.601940000000     0.742310000000     0.108200000000     2.42726    
In3      In     0.392470000000     0.742450000000     0.898820000000     2.42727    
In4      In     0.392480000000     0.742580000000     0.108080000000     2.42693    
In5      In     0.744450000000     0.388550000000     0.899100000000     2.42486    
In6      In     0.744480000000     0.388610000000     0.107770000000     2.42503    
In7      In     0.745690000000     0.595440000000     0.899090000000     2.43124    
In8      In     0.745670000000     0.595500000000     0.107890000000     2.43093    
In9      In     0.601710000000     0.889270000000     0.252080000000     2.43165    
In10     In     0.601820000000     0.096100000000     0.250600000000     2.42541    
In11     In     0.392890000000     0.096350000000     0.250500000000     2.42552    
In12     In     0.392640000000     0.889520000000     0.251960000000     2.43119    
In13     In     0.395430000000     0.242480000000     0.901500000000     2.3936     
In14     In     0.395470000000     0.242610000000     0.105210000000     2.39322    
In15     In     0.599280000000     0.242270000000     0.901580000000     2.39333    
In16     In     0.599320000000     0.242310000000     0.105260000000     2.3925     
In17     In     0.102000000000     0.388630000000     0.253700000000     2.42786    
In18     In     0.892820000000     0.388390000000     0.253740000000     2.42788    
In19     In     0.892700000000     0.595240000000     0.255110000000     2.43145    
In20     In     0.101710000000     0.595470000000     0.255040000000     2.43126    
In21     In     0.248700000000     0.595660000000     0.898970000000     2.43053    
In22     In     0.248680000000     0.595790000000     0.107790000000     2.43145    
In23     In     0.250320000000     0.388900000000     0.107700000000     2.42492    
In24     In     0.250270000000     0.388770000000     0.899030000000     2.42469    
In25     In     0.892530000000     0.742080000000     0.608220000000     2.42569    
In26     In     0.101870000000     0.742250000000     0.608150000000     2.42582    
In27     In     0.892490000000     0.742130000000     0.398790000000     2.42621    
In28     In     0.101830000000     0.742370000000     0.398730000000     2.42563    
In29     In     0.101930000000     0.388420000000     0.753070000000     2.42732    
In30     In     0.892750000000     0.388270000000     0.753100000000     2.42766    
In31     In     0.892680000000     0.595120000000     0.751830000000     2.43096    
In32     In     0.101690000000     0.595270000000     0.751750000000     2.43179    
In33     In     0.247090000000     0.096420000000     0.398710000000     2.42832    
In34     In     0.245580000000     0.889670000000     0.398830000000     2.43247    
In35     In     0.245640000000     0.889540000000     0.607940000000     2.432      
In36     In     0.247090000000     0.096300000000     0.607990000000     2.42769    
In37     In     0.102020000000     0.242670000000     0.398620000000     2.42635    
In38     In     0.892630000000     0.242430000000     0.398670000000     2.42629    
In39     In     0.892620000000     0.242370000000     0.608110000000     2.42598    
In40     In     0.102010000000     0.242550000000     0.608070000000     2.4263     
In41     In     0.748740000000     0.889350000000     0.608110000000     2.43116    
In42     In     0.747580000000     0.096100000000     0.608120000000     2.42793    
In43     In     0.747590000000     0.096170000000     0.398850000000     2.42846    
In44     In     0.748700000000     0.889410000000     0.398990000000     2.43136    
In45     In     0.392630000000     0.889340000000     0.754840000000     2.43116    
In46     In     0.392820000000     0.096160000000     0.756250000000     2.42549    
In47     In     0.601710000000     0.889130000000     0.754970000000     2.4314     
In48     In     0.601770000000     0.095950000000     0.756320000000     2.42588    
N1       N      0.605170000000     0.039800000000     0.757140000000    -0.16618    
N2       N      0.605030000000     0.945250000000     0.756660000000    -0.166036   
N3       N      0.449400000000     0.103100000000     0.755430000000    -0.166107   
N4       N      0.545190000000     0.102990000000     0.755460000000    -0.166073   
N5       N      0.389370000000     0.945460000000     0.756540000000    -0.165896   
N6       N      0.389330000000     0.040010000000     0.757050000000    -0.166158   
N7       N      0.545070000000     0.883080000000     0.754320000000    -0.165862   
N8       N      0.449270000000     0.883210000000     0.754250000000    -0.165638   
N9       N      0.749910000000     0.945510000000     0.395250000000    -0.16585    
N10      N      0.749320000000     0.040070000000     0.395170000000    -0.165937   
N11      N      0.641680000000     0.105870000000     0.716950000000    -0.1653     
N12      N      0.708730000000     0.105880000000     0.648600000000    -0.16557    
N13      N      0.746510000000     0.101540000000     0.455580000000    -0.165955   
N14      N      0.746490000000     0.101470000000     0.551390000000    -0.165684   
N15      N      0.709520000000     0.879340000000     0.648120000000    -0.165265   
N16      N      0.641750000000     0.879480000000     0.715670000000    -0.165471   
N17      N      0.748010000000     0.883820000000     0.551430000000    -0.1658     
N18      N      0.747990000000     0.883860000000     0.455670000000    -0.16582    
N19      N      0.749920000000     0.945450000000     0.611860000000    -0.16597    
N20      N      0.749320000000     0.040000000000     0.611840000000    -0.165789   
N21      N      0.853080000000     0.203400000000     0.619210000000    -0.165419   
N22      N      0.786130000000     0.135930000000     0.619520000000    -0.165426   
N23      N      0.949400000000     0.241790000000     0.613370000000    -0.165959   
N24      N      0.045240000000     0.241890000000     0.613370000000    -0.165944   
N25      N      0.853090000000     0.203460000000     0.387590000000    -0.165566   
N26      N      0.786140000000     0.135980000000     0.387430000000    -0.165355   
N27      N      0.888080000000     0.243210000000     0.455490000000    -0.165897   
N28      N      0.888050000000     0.243170000000     0.551290000000    -0.165872   
N29      N      0.949410000000     0.241870000000     0.393380000000    -0.166085   
N30      N      0.045250000000     0.242010000000     0.393320000000    -0.166004   
N31      N      0.106540000000     0.243440000000     0.455440000000    -0.166034   
N32      N      0.106550000000     0.243380000000     0.551250000000    -0.166029   
N33      N      0.208550000000     0.136130000000     0.619370000000    -0.165512   
N34      N      0.141590000000     0.203600000000     0.619130000000    -0.165543   
N35      N      0.285930000000     0.106070000000     0.648470000000    -0.165429   
N36      N      0.352930000000     0.106130000000     0.716860000000    -0.165139   
N37      N      0.284840000000     0.879550000000     0.647960000000    -0.165344   
N38      N      0.352600000000     0.879730000000     0.715530000000    -0.165485   
N39      N      0.244510000000     0.945650000000     0.611670000000    -0.165869   
N40      N      0.245280000000     0.040200000000     0.611710000000    -0.165803   
N41      N      0.246310000000     0.884070000000     0.455500000000    -0.165923   
N42      N      0.246330000000     0.884000000000     0.551260000000    -0.165732   
N43      N      0.141600000000     0.203740000000     0.387540000000    -0.165562   
N44      N      0.208560000000     0.136270000000     0.387310000000    -0.165418   
N45      N      0.244460000000     0.945780000000     0.395130000000    -0.165965   
N46      N      0.245270000000     0.040330000000     0.395000000000    -0.165797   
N47      N      0.248180000000     0.101760000000     0.455440000000    -0.165958   
N48      N      0.248190000000     0.101660000000     0.551260000000    -0.165919   
N49      N      0.949290000000     0.601550000000     0.752370000000    -0.165654   
N50      N      0.045070000000     0.601640000000     0.752320000000    -0.165796   
N51      N      0.880730000000     0.348560000000     0.714620000000    -0.165286   
N52      N      0.880950000000     0.281180000000     0.647630000000    -0.165303   
N53      N      0.889790000000     0.538970000000     0.750440000000    -0.166012   
N54      N      0.889800000000     0.444410000000     0.751120000000    -0.165866   
N55      N      0.113680000000     0.281370000000     0.647580000000    -0.165522   
N56      N      0.113970000000     0.348730000000     0.714590000000    -0.165304   
N57      N      0.045260000000     0.382230000000     0.754030000000    -0.165807   
N58      N      0.949420000000     0.382140000000     0.754030000000    -0.165824   
N59      N      0.104640000000     0.539120000000     0.750370000000    -0.165925   
N60      N      0.104810000000     0.444560000000     0.751090000000    -0.165939   
N61      N      0.140950000000     0.781680000000     0.387360000000    -0.165605   
N62      N      0.207270000000     0.849740000000     0.387090000000    -0.16546    
N63      N      0.853310000000     0.781400000000     0.387480000000    -0.165529   
N64      N      0.786990000000     0.849460000000     0.387270000000    -0.165452   
N65      N      0.949250000000     0.742550000000     0.393300000000    -0.165933   
N66      N      0.045070000000     0.742680000000     0.393290000000    -0.165959   
N67      N      0.207320000000     0.849600000000     0.619670000000    -0.165415   
N68      N      0.141020000000     0.781540000000     0.619510000000    -0.165491   
N69      N      0.113870000000     0.703090000000     0.647210000000    -0.165522   
N70      N      0.114070000000     0.635090000000     0.713520000000    -0.165301   
N71      N      0.106520000000     0.741790000000     0.455540000000    -0.165985   
N72      N      0.106520000000     0.741730000000     0.551330000000    -0.165996   
N73      N      0.853370000000     0.781340000000     0.619570000000    -0.165707   
N74      N      0.787040000000     0.849400000000     0.619810000000    -0.165359   
N75      N      0.880540000000     0.702910000000     0.647280000000    -0.165333   
N76      N      0.880250000000     0.634920000000     0.713610000000    -0.165286   
N77      N      0.887860000000     0.741550000000     0.455610000000    -0.166066   
N78      N      0.887880000000     0.741530000000     0.551400000000    -0.166088   
N79      N      0.949290000000     0.742470000000     0.613680000000    -0.165973   
N80      N      0.045110000000     0.742570000000     0.613630000000    -0.165973   
N81      N      0.210830000000     0.379280000000     0.859070000000    -0.165175   
N82      N      0.142460000000     0.379250000000     0.792030000000    -0.165483   
N83      N      0.249500000000     0.381220000000     0.051240000000    -0.165933   
N84      N      0.249490000000     0.381130000000     0.955500000000    -0.165865   
N85      N      0.250710000000     0.539650000000     0.110340000000    -0.165995   
N86      N      0.251310000000     0.445090000000     0.110430000000    -0.166137   
N87      N      0.209290000000     0.604610000000     0.858880000000    -0.165543   
N88      N      0.141730000000     0.604660000000     0.791080000000    -0.165486   
N89      N      0.250720000000     0.539510000000     0.896440000000    -0.165867   
N90      N      0.251280000000     0.444960000000     0.896290000000    -0.166089   
N91      N      0.248150000000     0.602520000000     0.955500000000    -0.16577    
N92      N      0.248150000000     0.602610000000     0.051250000000    -0.165685   
N93      N      0.141740000000     0.604890000000     0.215690000000    -0.165478   
N94      N      0.209280000000     0.604790000000     0.147870000000    -0.165621   
N95      N      0.114060000000     0.635280000000     0.293270000000    -0.165447   
N96      N      0.113830000000     0.703250000000     0.359630000000    -0.165502   
N97      N      0.880280000000     0.635020000000     0.293360000000    -0.165447   
N98      N      0.880490000000     0.702980000000     0.359720000000    -0.165426   
N99      N      0.949310000000     0.601690000000     0.254540000000    -0.165799   
N100     N      0.045090000000     0.601790000000     0.254500000000    -0.165733   
N101     N      0.880810000000     0.348670000000     0.292200000000    -0.165344   
N102     N      0.880960000000     0.281250000000     0.359160000000    -0.16538    
N103     N      0.889850000000     0.444530000000     0.255740000000    -0.165833   
N104     N      0.889840000000     0.539090000000     0.256470000000    -0.165994   
N105     N      0.113710000000     0.281520000000     0.359140000000    -0.165368   
N106     N      0.114040000000     0.348920000000     0.292160000000    -0.165386   
N107     N      0.142530000000     0.379460000000     0.214730000000    -0.165417   
N108     N      0.210890000000     0.379430000000     0.147680000000    -0.165404   
N109     N      0.045330000000     0.382440000000     0.252750000000    -0.165691   
N110     N      0.949500000000     0.382290000000     0.252780000000    -0.1657     
N111     N      0.104900000000     0.444760000000     0.255680000000    -0.166055   
N112     N      0.104710000000     0.539320000000     0.256400000000    -0.16593    
N113     N      0.608870000000     0.201360000000     0.863490000000    -0.166534   
N114     N      0.613540000000     0.134300000000     0.796280000000    -0.165417   
N115     N      0.606060000000     0.225500000000     0.955690000000    -0.166322   
N116     N      0.606090000000     0.225500000000     0.051160000000    -0.166236   
N117     N      0.357440000000     0.283560000000     0.114930000000    -0.166517   
N118     N      0.290260000000     0.350650000000     0.119840000000    -0.165377   
N119     N      0.545160000000     0.259100000000     0.111860000000    -0.166124   
N120     N      0.449650000000     0.259290000000     0.111860000000    -0.166243   
N121     N      0.290210000000     0.350500000000     0.886890000000    -0.165318   
N122     N      0.357390000000     0.283410000000     0.891750000000    -0.166528   
N123     N      0.381090000000     0.134520000000     0.796200000000    -0.165426   
N124     N      0.385800000000     0.201580000000     0.863410000000    -0.166508   
N125     N      0.388640000000     0.225730000000     0.955630000000    -0.166176   
N126     N      0.388670000000     0.225820000000     0.051100000000    -0.166258   
N127     N      0.449610000000     0.259170000000     0.894880000000    -0.16636    
N128     N      0.545120000000     0.259040000000     0.894930000000    -0.166267   
N129     N      0.284800000000     0.879720000000     0.358810000000    -0.165415   
N130     N      0.352590000000     0.879970000000     0.291270000000    -0.165564   
N131     N      0.352990000000     0.106270000000     0.289880000000    -0.165296   
N132     N      0.285950000000     0.106200000000     0.358240000000    -0.165491   
N133     N      0.381140000000     0.134690000000     0.210540000000    -0.165341   
N134     N      0.385820000000     0.201730000000     0.143310000000    -0.166409   
N135     N      0.389480000000     0.040190000000     0.249690000000    -0.166151   
N136     N      0.389470000000     0.945640000000     0.250220000000    -0.166027   
N137     N      0.608920000000     0.201430000000     0.143390000000    -0.166447   
N138     N      0.613650000000     0.134420000000     0.210630000000    -0.165379   
N139     N      0.641720000000     0.105980000000     0.289990000000    -0.165309   
N140     N      0.708740000000     0.105940000000     0.358370000000    -0.165521   
N141     N      0.545260000000     0.103220000000     0.251410000000    -0.166103   
N142     N      0.449470000000     0.103360000000     0.251350000000    -0.166044   
N143     N      0.641720000000     0.879670000000     0.291410000000    -0.165566   
N144     N      0.709480000000     0.879450000000     0.358980000000    -0.165395   
N145     N      0.545070000000     0.883170000000     0.252650000000    -0.165792   
N146     N      0.449270000000     0.883290000000     0.252600000000    -0.165739   
N147     N      0.605150000000     0.039940000000     0.249800000000    -0.166223   
N148     N      0.604980000000     0.945390000000     0.250330000000    -0.165975   
N149     N      0.852640000000     0.604570000000     0.215780000000    -0.165336   
N150     N      0.785080000000     0.604470000000     0.147990000000    -0.165475   
N151     N      0.785090000000     0.604390000000     0.858990000000    -0.165615   
N152     N      0.852640000000     0.604460000000     0.791180000000    -0.165401   
N153     N      0.746220000000     0.602330000000     0.955620000000    -0.165787   
N154     N      0.746200000000     0.602390000000     0.051370000000    -0.165749   
N155     N      0.704570000000     0.350310000000     0.119900000000    -0.165366   
N156     N      0.637390000000     0.283220000000     0.114990000000    -0.166559   
N157     N      0.783940000000     0.379150000000     0.147730000000    -0.165356   
N158     N      0.852300000000     0.379180000000     0.214780000000    -0.165454   
N159     N      0.743740000000     0.539350000000     0.110380000000    -0.165973   
N160     N      0.743380000000     0.444800000000     0.110520000000    -0.166138   
N161     N      0.852240000000     0.379070000000     0.792070000000    -0.165544   
N162     N      0.783890000000     0.379080000000     0.859130000000    -0.165205   
N163     N      0.637340000000     0.283180000000     0.891840000000    -0.166477   
N164     N      0.704530000000     0.350260000000     0.886970000000    -0.165313   
N165     N      0.745270000000     0.380900000000     0.955570000000    -0.165912   
N166     N      0.745290000000     0.380940000000     0.051310000000    -0.166008   
N167     N      0.743370000000     0.444740000000     0.896370000000    -0.166024   
N168     N      0.743740000000     0.539290000000     0.896590000000    -0.165944   
N169     N      0.286890000000     0.635590000000     0.120300000000    -0.165469   
N170     N      0.353340000000     0.703470000000     0.120020000000    -0.16545    
N171     N      0.380990000000     0.781790000000     0.147220000000    -0.165585   
N172     N      0.380620000000     0.849680000000     0.213670000000    -0.165572   
N173     N      0.380660000000     0.849490000000     0.793150000000    -0.165429   
N174     N      0.381010000000     0.781640000000     0.859630000000    -0.1655     
N175     N      0.353360000000     0.703330000000     0.886850000000    -0.165326   
N176     N      0.286910000000     0.635450000000     0.886450000000    -0.165305   
N177     N      0.387030000000     0.742870000000     0.955560000000    -0.166084   
N178     N      0.387060000000     0.742940000000     0.051340000000    -0.166068   
N179     N      0.613410000000     0.781500000000     0.147370000000    -0.165555   
N180     N      0.613700000000     0.849400000000     0.213800000000    -0.165406   
N181     N      0.641020000000     0.703160000000     0.120190000000    -0.165573   
N182     N      0.707450000000     0.635260000000     0.120470000000    -0.165391   
N183     N      0.545120000000     0.741850000000     0.112940000000    -0.166137   
N184     N      0.449290000000     0.741990000000     0.112910000000    -0.166155   
N185     N      0.613380000000     0.781420000000     0.859750000000    -0.165452   
N186     N      0.613640000000     0.849280000000     0.793290000000    -0.165454   
N187     N      0.641020000000     0.703100000000     0.886950000000    -0.165577   
N188     N      0.707470000000     0.635210000000     0.886550000000    -0.165451   
N189     N      0.545120000000     0.741740000000     0.894200000000    -0.166145   
N190     N      0.449290000000     0.741880000000     0.894070000000    -0.166195   
N191     N      0.607410000000     0.742660000000     0.051460000000    -0.16602    
N192     N      0.607420000000     0.742620000000     0.955680000000    -0.16596    
O1       O      0.599060000000     0.729040000000     0.927790000000    -0.514271   
O2       O      0.610800000000     0.756340000000     0.926590000000    -0.488839   
O3       O      0.610310000000     0.712980000000     0.889440000000    -0.48991    
O4       O      0.574220000000     0.728170000000     0.890280000000    -0.489048   
O5       O      0.611410000000     0.771490000000     0.890480000000    -0.489849   
O6       O      0.573080000000     0.755290000000     0.902410000000    -0.514553   
O7       O      0.632160000000     0.732440000000     0.895760000000    -0.512214   
O8       O      0.604600000000     0.752100000000     0.868720000000    -0.512532   
O9       O      0.604610000000     0.752190000000     0.138420000000    -0.512861   
O10      O      0.611430000000     0.771560000000     0.116650000000    -0.489962   
O11      O      0.610310000000     0.713050000000     0.117710000000    -0.490034   
O12      O      0.574210000000     0.728260000000     0.116870000000    -0.489064   
O13      O      0.610800000000     0.756390000000     0.080550000000    -0.488835   
O14      O      0.573090000000     0.755380000000     0.104730000000    -0.514498   
O15      O      0.632160000000     0.732500000000     0.111380000000    -0.512386   
O16      O      0.599060000000     0.729100000000     0.079370000000    -0.514489   
O17      O      0.389800000000     0.752320000000     0.868590000000    -0.512221   
O18      O      0.383010000000     0.771710000000     0.890360000000    -0.489768   
O19      O      0.384080000000     0.713200000000     0.889300000000    -0.489719   
O20      O      0.420170000000     0.728350000000     0.890140000000    -0.489026   
O21      O      0.383640000000     0.756570000000     0.926460000000    -0.488818   
O22      O      0.421340000000     0.755470000000     0.902260000000    -0.514762   
O23      O      0.362240000000     0.732670000000     0.895670000000    -0.512249   
O24      O      0.395350000000     0.729270000000     0.927660000000    -0.514704   
O25      O      0.395380000000     0.729370000000     0.079250000000    -0.514641   
O26      O      0.383670000000     0.756670000000     0.080420000000    -0.488911   
O27      O      0.384060000000     0.713330000000     0.117600000000    -0.489746   
O28      O      0.420160000000     0.728470000000     0.116800000000    -0.489181   
O29      O      0.383030000000     0.771850000000     0.116510000000    -0.489943   
O30      O      0.421360000000     0.755580000000     0.104660000000    -0.514803   
O31      O      0.362240000000     0.732800000000     0.111200000000    -0.512123   
O32      O      0.389750000000     0.752460000000     0.138300000000    -0.512485   
O33      O      0.731030000000     0.389260000000     0.927980000000    -0.5147     
O34      O      0.759420000000     0.379600000000     0.926390000000    -0.487121   
O35      O      0.714260000000     0.380440000000     0.891330000000    -0.489227   
O36      O      0.730290000000     0.416010000000     0.890610000000    -0.488897   
O37      O      0.773860000000     0.379070000000     0.889950000000    -0.489992   
O38      O      0.756970000000     0.417050000000     0.904440000000    -0.515022   
O39      O      0.734900000000     0.358920000000     0.893480000000    -0.511041   
O40      O      0.754400000000     0.387830000000     0.868750000000    -0.511944   
O41      O      0.754440000000     0.387890000000     0.138120000000    -0.511723   
O42      O      0.773900000000     0.379140000000     0.116920000000    -0.48993    
O43      O      0.714300000000     0.380490000000     0.115550000000    -0.489459   
O44      O      0.730320000000     0.416070000000     0.116270000000    -0.489086   
O45      O      0.759450000000     0.379650000000     0.080480000000    -0.486922   
O46      O      0.756990000000     0.417110000000     0.102440000000    -0.515341   
O47      O      0.734940000000     0.358980000000     0.113390000000    -0.511263   
O48      O      0.731060000000     0.389320000000     0.078890000000    -0.514824   
O49      O      0.755530000000     0.596120000000     0.868740000000    -0.514149   
O50      O      0.775290000000     0.604310000000     0.889880000000    -0.49053    
O51      O      0.716320000000     0.604580000000     0.889490000000    -0.490074   
O52      O      0.730870000000     0.568170000000     0.891080000000    -0.488999   
O53      O      0.760530000000     0.603790000000     0.926550000000    -0.488286   
O54      O      0.757900000000     0.566810000000     0.904220000000    -0.515623   
O55      O      0.736900000000     0.625500000000     0.895310000000    -0.513413   
O56      O      0.731970000000     0.594500000000     0.927850000000    -0.514879   
O57      O      0.731950000000     0.594560000000     0.079140000000    -0.515093   
O58      O      0.760510000000     0.603860000000     0.080430000000    -0.488266   
O59      O      0.716300000000     0.604640000000     0.117510000000    -0.490126   
O60      O      0.730870000000     0.568220000000     0.115900000000    -0.489192   
O61      O      0.775270000000     0.604390000000     0.117100000000    -0.49023    
O62      O      0.757900000000     0.566880000000     0.102760000000    -0.515467   
O63      O      0.736880000000     0.625560000000     0.111690000000    -0.513322   
O64      O      0.755520000000     0.596170000000     0.138240000000    -0.514009   
O65      O      0.597170000000     0.917910000000     0.264480000000    -0.515562   
O66      O      0.609950000000     0.916490000000     0.237290000000    -0.489066   
O67      O      0.610810000000     0.880330000000     0.281670000000    -0.490667   
O68      O      0.574160000000     0.881090000000     0.266850000000    -0.488544   
O69      O      0.611270000000     0.880050000000     0.222720000000    -0.48996    
O70      O      0.572920000000     0.890850000000     0.238460000000    -0.514857   
O71      O      0.632080000000     0.888010000000     0.261840000000    -0.51419    
O72      O      0.604940000000     0.859180000000     0.243200000000    -0.513421   
O73      O      0.607140000000     0.125750000000     0.240990000000    -0.511505   
O74      O      0.609560000000     0.104220000000     0.220410000000    -0.48957    
O75      O      0.610890000000     0.105590000000     0.280020000000    -0.489875   
O76      O      0.574460000000     0.105060000000     0.265460000000    -0.487206   
O77      O      0.610460000000     0.068650000000     0.236500000000    -0.488764   
O78      O      0.572900000000     0.094830000000     0.237290000000    -0.515275   
O79      O      0.632190000000     0.097230000000     0.260480000000    -0.511693   
O80      O      0.596940000000     0.067620000000     0.263330000000    -0.515093   
O81      O      0.397720000000     0.067860000000     0.263230000000    -0.51509    
O82      O      0.384220000000     0.068910000000     0.236400000000    -0.489237   
O83      O      0.383830000000     0.105840000000     0.279920000000    -0.489764   
O84      O      0.420260000000     0.105260000000     0.265380000000    -0.487045   
O85      O      0.385180000000     0.104480000000     0.220310000000    -0.489392   
O86      O      0.421820000000     0.095030000000     0.237210000000    -0.515254   
O87      O      0.362520000000     0.097520000000     0.260370000000    -0.511774   
O88      O      0.387630000000     0.126010000000     0.240900000000    -0.511526   
O89      O      0.383110000000     0.880320000000     0.222590000000    -0.490308   
O90      O      0.389340000000     0.859440000000     0.243080000000    -0.513566   
O91      O      0.383500000000     0.880580000000     0.281550000000    -0.490347   
O92      O      0.420160000000     0.881280000000     0.266770000000    -0.488249   
O93      O      0.384450000000     0.916760000000     0.237180000000    -0.489164   
O94      O      0.421450000000     0.891040000000     0.238380000000    -0.514889   
O95      O      0.362260000000     0.888320000000     0.261710000000    -0.51402    
O96      O      0.397230000000     0.918150000000     0.264370000000    -0.5157     
O97      O      0.378610000000     0.240300000000     0.928750000000    -0.502152   
O98      O      0.405230000000     0.226650000000     0.927820000000    -0.49295    
O99      O      0.387640000000     0.273210000000     0.897140000000    -0.497261   
O100     O      0.421770000000     0.258210000000     0.911420000000    -0.493219   
O101     O      0.390980000000     0.211760000000     0.893700000000    -0.497076   
O102     O      0.422710000000     0.244710000000     0.884740000000    -0.502266   
O103     O      0.365730000000     0.252990000000     0.896040000000    -0.498143   
O104     O      0.390160000000     0.231980000000     0.871790000000    -0.498178   
O105     O      0.390170000000     0.232130000000     0.134920000000    -0.498126   
O106     O      0.391030000000     0.211890000000     0.113020000000    -0.496741   
O107     O      0.387690000000     0.273350000000     0.109540000000    -0.497126   
O108     O      0.422740000000     0.244840000000     0.121990000000    -0.501977   
O109     O      0.405270000000     0.226770000000     0.078900000000    -0.493135   
O110     O      0.421830000000     0.258330000000     0.095290000000    -0.492693   
O111     O      0.365780000000     0.253130000000     0.110670000000    -0.498028   
O112     O      0.378650000000     0.240410000000     0.077960000000    -0.502269   
O113     O      0.604560000000     0.231770000000     0.871860000000    -0.497668   
O114     O      0.603670000000     0.211540000000     0.893770000000    -0.496738   
O115     O      0.607080000000     0.273000000000     0.897220000000    -0.497019   
O116     O      0.572950000000     0.258030000000     0.911490000000    -0.492908   
O117     O      0.616100000000     0.240050000000     0.928810000000    -0.50264    
O118     O      0.572000000000     0.244530000000     0.884800000000    -0.501691   
O119     O      0.628980000000     0.252760000000     0.896130000000    -0.498055   
O120     O      0.589460000000     0.226450000000     0.927890000000    -0.493115   
O121     O      0.589500000000     0.226470000000     0.078960000000    -0.492984   
O122     O      0.616140000000     0.240080000000     0.078020000000    -0.50237    
O123     O      0.607130000000     0.273040000000     0.109630000000    -0.497048   
O124     O      0.572030000000     0.244580000000     0.122020000000    -0.50176    
O125     O      0.603720000000     0.211590000000     0.113100000000    -0.496981   
O126     O      0.573000000000     0.258080000000     0.095330000000    -0.492931   
O127     O      0.629030000000     0.252810000000     0.110690000000    -0.498065   
O128     O      0.604600000000     0.231830000000     0.134990000000    -0.497921   
O129     O      0.132470000000     0.387910000000     0.244140000000    -0.513302   
O130     O      0.111530000000     0.379480000000     0.224270000000    -0.489902   
O131     O      0.111580000000     0.379520000000     0.283080000000    -0.489543   
O132     O      0.109640000000     0.415860000000     0.268770000000    -0.488291   
O133     O      0.074510000000     0.380540000000     0.238660000000    -0.48795    
O134     O      0.097670000000     0.417280000000     0.241220000000    -0.515331   
O135     O      0.105300000000     0.358550000000     0.262700000000    -0.512934   
O136     O      0.073120000000     0.389990000000     0.267140000000    -0.514951   
O137     O      0.921700000000     0.389800000000     0.267180000000    -0.514798   
O138     O      0.920320000000     0.380350000000     0.238700000000    -0.488019   
O139     O      0.883240000000     0.379270000000     0.283110000000    -0.48988    
O140     O      0.885150000000     0.415610000000     0.268830000000    -0.487933   
O141     O      0.883300000000     0.379250000000     0.224300000000    -0.489963   
O142     O      0.897110000000     0.417050000000     0.241270000000    -0.514958   
O143     O      0.889570000000     0.358310000000     0.262740000000    -0.513017   
O144     O      0.862350000000     0.387630000000     0.244180000000    -0.513456   
O145     O      0.862330000000     0.596140000000     0.245320000000    -0.51387    
O146     O      0.883530000000     0.604320000000     0.225590000000    -0.489664   
O147     O      0.882990000000     0.604380000000     0.284460000000    -0.490081   
O148     O      0.885020000000     0.567840000000     0.269900000000    -0.48895    
O149     O      0.920210000000     0.603590000000     0.240340000000    -0.488675   
O150     O      0.897120000000     0.566740000000     0.242390000000    -0.516095   
O151     O      0.889150000000     0.625290000000     0.263980000000    -0.513819   
O152     O      0.921510000000     0.593840000000     0.268720000000    -0.515336   
O153     O      0.072920000000     0.594000000000     0.268670000000    -0.515208   
O154     O      0.074180000000     0.603760000000     0.240280000000    -0.488416   
O155     O      0.111430000000     0.604630000000     0.284370000000    -0.490189   
O156     O      0.109470000000     0.568090000000     0.269820000000    -0.488933   
O157     O      0.110850000000     0.604560000000     0.225510000000    -0.489699   
O158     O      0.097360000000     0.566950000000     0.242310000000    -0.515575   
O159     O      0.105180000000     0.625530000000     0.263900000000    -0.513597   
O160     O      0.132080000000     0.596460000000     0.245230000000    -0.513784   
O161     O      0.262410000000     0.594700000000     0.927730000000    -0.514778   
O162     O      0.233850000000     0.603990000000     0.926430000000    -0.488378   
O163     O      0.278070000000     0.604820000000     0.889360000000    -0.489803   
O164     O      0.263550000000     0.568410000000     0.890950000000    -0.488966   
O165     O      0.219090000000     0.604510000000     0.889770000000    -0.490427   
O166     O      0.236510000000     0.567010000000     0.904080000000    -0.514989   
O167     O      0.257480000000     0.625730000000     0.895220000000    -0.513122   
O168     O      0.238860000000     0.596350000000     0.868620000000    -0.51387    
O169     O      0.238840000000     0.596520000000     0.138140000000    -0.514194   
O170     O      0.219070000000     0.604650000000     0.116980000000    -0.490405   
O171     O      0.278040000000     0.604960000000     0.117410000000    -0.490119   
O172     O      0.263530000000     0.568550000000     0.115810000000    -0.489537   
O173     O      0.233840000000     0.604110000000     0.080320000000    -0.488355   
O174     O      0.236490000000     0.567150000000     0.102710000000    -0.515716   
O175     O      0.257470000000     0.625860000000     0.111510000000    -0.513324   
O176     O      0.262400000000     0.594820000000     0.079030000000    -0.514924   
O177     O      0.263720000000     0.389620000000     0.078820000000    -0.515326   
O178     O      0.235350000000     0.379920000000     0.080420000000    -0.487145   
O179     O      0.280520000000     0.380820000000     0.115460000000    -0.489268   
O180     O      0.264440000000     0.416390000000     0.116180000000    -0.488827   
O181     O      0.220920000000     0.379400000000     0.116870000000    -0.489916   
O182     O      0.237750000000     0.417380000000     0.102360000000    -0.514738   
O183     O      0.259880000000     0.359290000000     0.113360000000    -0.511128   
O184     O      0.240370000000     0.388200000000     0.138060000000    -0.511624   
O185     O      0.240320000000     0.388050000000     0.868680000000    -0.511606   
O186     O      0.220870000000     0.379260000000     0.889890000000    -0.489703   
O187     O      0.280470000000     0.380670000000     0.891260000000    -0.489074   
O188     O      0.264390000000     0.416250000000     0.890540000000    -0.489224   
O189     O      0.235320000000     0.379800000000     0.926330000000    -0.486813   
O190     O      0.237710000000     0.417250000000     0.904360000000    -0.515095   
O191     O      0.259830000000     0.359150000000     0.893400000000    -0.51118    
O192     O      0.263700000000     0.389510000000     0.927910000000    -0.514701   
O193     O      0.862300000000     0.752030000000     0.610760000000    -0.512674   
O194     O      0.884080000000     0.771330000000     0.617750000000    -0.489785   
O195     O      0.882940000000     0.712830000000     0.616580000000    -0.489548   
O196     O      0.883870000000     0.728000000000     0.580500000000    -0.488603   
O197     O      0.920180000000     0.756190000000     0.617050000000    -0.488609   
O198     O      0.896070000000     0.755090000000     0.579360000000    -0.514347   
O199     O      0.889390000000     0.732250000000     0.638430000000    -0.511953   
O200     O      0.921380000000     0.728880000000     0.605360000000    -0.514387   
O201     O      0.073040000000     0.729020000000     0.605290000000    -0.51453    
O202     O      0.074200000000     0.756330000000     0.616980000000    -0.488645   
O203     O      0.111480000000     0.713010000000     0.616510000000    -0.489779   
O204     O      0.110540000000     0.728190000000     0.580430000000    -0.488636   
O205     O      0.110300000000     0.771510000000     0.617670000000    -0.48947    
O206     O      0.098320000000     0.755280000000     0.579290000000    -0.513891   
O207     O      0.105020000000     0.732420000000     0.638350000000    -0.512533   
O208     O      0.132100000000     0.752210000000     0.610700000000    -0.512102   
O209     O      0.921340000000     0.728940000000     0.401630000000    -0.514377   
O210     O      0.920130000000     0.756260000000     0.389960000000    -0.488546   
O211     O      0.882910000000     0.712890000000     0.390420000000    -0.489913   
O212     O      0.883840000000     0.728040000000     0.426500000000    -0.488787   
O213     O      0.884030000000     0.771380000000     0.389280000000    -0.489828   
O214     O      0.896040000000     0.755130000000     0.427660000000    -0.514187   
O215     O      0.889330000000     0.732320000000     0.368580000000    -0.512323   
O216     O      0.862250000000     0.752080000000     0.396280000000    -0.512341   
O217     O      0.132050000000     0.752350000000     0.396150000000    -0.512587   
O218     O      0.110240000000     0.771640000000     0.389230000000    -0.489713   
O219     O      0.111460000000     0.713150000000     0.390340000000    -0.489502   
O220     O      0.110520000000     0.728280000000     0.426430000000    -0.488477   
O221     O      0.074150000000     0.756450000000     0.389920000000    -0.488464   
O222     O      0.098300000000     0.755370000000     0.427600000000    -0.514253   
O223     O      0.104950000000     0.732570000000     0.368510000000    -0.512131   
O224     O      0.073000000000     0.729130000000     0.401600000000    -0.514459   
O225     O      0.073040000000     0.389780000000     0.739640000000    -0.514775   
O226     O      0.074440000000     0.380330000000     0.768120000000    -0.487703   
O227     O      0.111510000000     0.379320000000     0.723690000000    -0.489731   
O228     O      0.109560000000     0.415660000000     0.738000000000    -0.487986   
O229     O      0.111460000000     0.379280000000     0.782510000000    -0.489663   
O230     O      0.097590000000     0.417070000000     0.765560000000    -0.514653   
O231     O      0.105220000000     0.358350000000     0.744070000000    -0.5129     
O232     O      0.132400000000     0.387710000000     0.762630000000    -0.513211   
O233     O      0.862280000000     0.387520000000     0.762660000000    -0.513375   
O234     O      0.883230000000     0.379120000000     0.782530000000    -0.490112   
O235     O      0.883160000000     0.379160000000     0.723720000000    -0.489349   
O236     O      0.885080000000     0.415500000000     0.738030000000    -0.488145   
O237     O      0.920250000000     0.380210000000     0.768130000000    -0.488037   
O238     O      0.897060000000     0.416920000000     0.765580000000    -0.514967   
O239     O      0.889490000000     0.358190000000     0.744090000000    -0.512709   
O240     O      0.921630000000     0.389660000000     0.739650000000    -0.514765   
O241     O      0.921470000000     0.593720000000     0.738190000000    -0.515067   
O242     O      0.920200000000     0.603450000000     0.766590000000    -0.488444   
O243     O      0.882950000000     0.604270000000     0.722490000000    -0.489789   
O244     O      0.884970000000     0.567730000000     0.737040000000    -0.488918   
O245     O      0.883520000000     0.604190000000     0.781360000000    -0.489914   
O246     O      0.897090000000     0.566610000000     0.764540000000    -0.516001   
O247     O      0.889140000000     0.625180000000     0.742980000000    -0.513453   
O248     O      0.862310000000     0.596030000000     0.761640000000    -0.513718   
O249     O      0.132060000000     0.596220000000     0.761550000000    -0.513846   
O250     O      0.110840000000     0.604350000000     0.781270000000    -0.490113   
O251     O      0.111400000000     0.604430000000     0.722410000000    -0.490066   
O252     O      0.109420000000     0.567890000000     0.736950000000    -0.488733   
O253     O      0.074170000000     0.603570000000     0.766520000000    -0.488679   
O254     O      0.097310000000     0.566760000000     0.764460000000    -0.515986   
O255     O      0.105190000000     0.625330000000     0.742890000000    -0.513677   
O256     O      0.072890000000     0.593840000000     0.738130000000    -0.515257   
O257     O      0.238010000000     0.126530000000     0.396020000000    -0.513024   
O258     O      0.217710000000     0.105650000000     0.389200000000    -0.489963   
O259     O      0.276530000000     0.105630000000     0.389260000000    -0.489663   
O260     O      0.262120000000     0.104310000000     0.426260000000    -0.488005   
O261     O      0.231980000000     0.069250000000     0.390900000000    -0.488083   
O262     O      0.233800000000     0.094380000000     0.427620000000    -0.515008   
O263     O      0.256520000000     0.097710000000     0.368240000000    -0.513341   
O264     O      0.259760000000     0.067770000000     0.402370000000    -0.515136   
O265     O      0.258530000000     0.918160000000     0.402570000000    -0.516074   
O266     O      0.230800000000     0.917020000000     0.390960000000    -0.489005   
O267     O      0.275090000000     0.880510000000     0.389710000000    -0.490035   
O268     O      0.260350000000     0.881530000000     0.426390000000    -0.48894    
O269     O      0.216220000000     0.880420000000     0.389220000000    -0.490484   
O270     O      0.232130000000     0.891750000000     0.427660000000    -0.515619   
O271     O      0.255240000000     0.888190000000     0.368440000000    -0.513609   
O272     O      0.236630000000     0.859590000000     0.395890000000    -0.51409    
O273     O      0.236680000000     0.859460000000     0.610850000000    -0.514156   
O274     O      0.216280000000     0.880280000000     0.617570000000    -0.490133   
O275     O      0.275150000000     0.880380000000     0.617050000000    -0.490132   
O276     O      0.260390000000     0.881420000000     0.580370000000    -0.488816   
O277     O      0.230850000000     0.916890000000     0.615830000000    -0.488603   
O278     O      0.232160000000     0.891640000000     0.579130000000    -0.515368   
O279     O      0.255290000000     0.888020000000     0.638330000000    -0.513579   
O280     O      0.258590000000     0.918040000000     0.604230000000    -0.515978   
O281     O      0.259760000000     0.067640000000     0.604330000000    -0.51493    
O282     O      0.231980000000     0.069120000000     0.615800000000    -0.48779    
O283     O      0.276530000000     0.105490000000     0.617450000000    -0.48995    
O284     O      0.262120000000     0.104200000000     0.580450000000    -0.488102   
O285     O      0.217700000000     0.105510000000     0.617480000000    -0.489792   
O286     O      0.233800000000     0.094260000000     0.579070000000    -0.514485   
O287     O      0.256510000000     0.097600000000     0.638470000000    -0.513452   
O288     O      0.238000000000     0.126400000000     0.610680000000    -0.513195   
O289     O      0.073130000000     0.255790000000     0.401390000000    -0.514408   
O290     O      0.074400000000     0.228340000000     0.390040000000    -0.488579   
O291     O      0.111530000000     0.271860000000     0.389950000000    -0.489652   
O292     O      0.110430000000     0.256970000000     0.426310000000    -0.488309   
O293     O      0.110780000000     0.213490000000     0.389160000000    -0.489779   
O294     O      0.098610000000     0.229710000000     0.427500000000    -0.514628   
O295     O      0.104930000000     0.252260000000     0.368310000000    -0.512187   
O296     O      0.132350000000     0.232980000000     0.396290000000    -0.512578   
O297     O      0.862310000000     0.232720000000     0.396310000000    -0.512437   
O298     O      0.883900000000     0.213230000000     0.389230000000    -0.489788   
O299     O      0.883090000000     0.271600000000     0.389980000000    -0.489708   
O300     O      0.884200000000     0.256720000000     0.426350000000    -0.488611   
O301     O      0.920290000000     0.228150000000     0.390100000000    -0.488477   
O302     O      0.896040000000     0.229470000000     0.427550000000    -0.51453    
O303     O      0.889750000000     0.252010000000     0.368350000000    -0.5122     
O304     O      0.921500000000     0.255590000000     0.401460000000    -0.514651   
O305     O      0.921490000000     0.255530000000     0.605320000000    -0.514399   
O306     O      0.920280000000     0.228070000000     0.616660000000    -0.488066   
O307     O      0.883090000000     0.271540000000     0.616810000000    -0.489556   
O308     O      0.884180000000     0.256670000000     0.580440000000    -0.488535   
O309     O      0.883900000000     0.213170000000     0.617560000000    -0.489717   
O310     O      0.896020000000     0.229420000000     0.579220000000    -0.514505   
O311     O      0.889740000000     0.251930000000     0.638430000000    -0.512099   
O312     O      0.862300000000     0.232650000000     0.610480000000    -0.51248    
O313     O      0.132340000000     0.232850000000     0.610400000000    -0.512348   
O314     O      0.110770000000     0.213360000000     0.617510000000    -0.490016   
O315     O      0.111530000000     0.271720000000     0.616770000000    -0.489816   
O316     O      0.110430000000     0.256870000000     0.580400000000    -0.4884     
O317     O      0.074380000000     0.228210000000     0.616640000000    -0.488207   
O318     O      0.098610000000     0.229610000000     0.579170000000    -0.514349   
O319     O      0.104910000000     0.252110000000     0.638390000000    -0.51213    
O320     O      0.073130000000     0.255670000000     0.605300000000    -0.514608   
O321     O      0.735810000000     0.917860000000     0.604420000000    -0.51602    
O322     O      0.763550000000     0.916680000000     0.616000000000    -0.489065   
O323     O      0.719220000000     0.880190000000     0.617210000000    -0.48966    
O324     O      0.733960000000     0.881240000000     0.580540000000    -0.488277   
O325     O      0.778090000000     0.880080000000     0.617740000000    -0.490085   
O326     O      0.762200000000     0.891450000000     0.579290000000    -0.515178   
O327     O      0.739080000000     0.887820000000     0.638500000000    -0.513346   
O328     O      0.757690000000     0.859250000000     0.610990000000    -0.513492   
O329     O      0.756670000000     0.126200000000     0.610840000000    -0.513191   
O330     O      0.776980000000     0.105310000000     0.617610000000    -0.489605   
O331     O      0.718150000000     0.105310000000     0.617580000000    -0.489883   
O332     O      0.732550000000     0.104020000000     0.580580000000    -0.487717   
O333     O      0.762650000000     0.068910000000     0.615930000000    -0.488137   
O334     O      0.760870000000     0.094060000000     0.579210000000    -0.514838   
O335     O      0.738150000000     0.097390000000     0.638600000000    -0.513307   
O336     O      0.734870000000     0.067460000000     0.604460000000    -0.514855   
O337     O      0.734880000000     0.067530000000     0.402530000000    -0.515198   
O338     O      0.762650000000     0.068970000000     0.391060000000    -0.488385   
O339     O      0.718160000000     0.105390000000     0.389380000000    -0.489916   
O340     O      0.732570000000     0.104090000000     0.426390000000    -0.488117   
O341     O      0.776990000000     0.105360000000     0.389360000000    -0.489476   
O342     O      0.760880000000     0.094130000000     0.427760000000    -0.514798   
O343     O      0.738160000000     0.097430000000     0.368380000000    -0.513827   
O344     O      0.756680000000     0.126270000000     0.396120000000    -0.513041   
O345     O      0.757640000000     0.859320000000     0.396100000000    -0.513697   
O346     O      0.778050000000     0.880140000000     0.389350000000    -0.489964   
O347     O      0.719180000000     0.880280000000     0.389880000000    -0.490214   
O348     O      0.733930000000     0.881300000000     0.426560000000    -0.488522   
O349     O      0.763530000000     0.916740000000     0.391100000000    -0.488689   
O350     O      0.762170000000     0.891500000000     0.427810000000    -0.515123   
O351     O      0.739040000000     0.887900000000     0.368600000000    -0.513616   
O352     O      0.735790000000     0.917930000000     0.402700000000    -0.51589    
O353     O      0.397160000000     0.917960000000     0.742410000000    -0.515783   
O354     O      0.384400000000     0.916570000000     0.769610000000    -0.489197   
O355     O      0.383520000000     0.880390000000     0.725250000000    -0.490342   
O356     O      0.420170000000     0.881120000000     0.740070000000    -0.488481   
O357     O      0.383080000000     0.880140000000     0.784220000000    -0.489718   
O358     O      0.421430000000     0.890940000000     0.768440000000    -0.514859   
O359     O      0.362250000000     0.888070000000     0.745090000000    -0.513871   
O360     O      0.389390000000     0.859260000000     0.763740000000    -0.513296   
O361     O      0.387590000000     0.125830000000     0.765850000000    -0.511449   
O362     O      0.385100000000     0.104310000000     0.786440000000    -0.489523   
O363     O      0.383770000000     0.105660000000     0.726830000000    -0.489774   
O364     O      0.420200000000     0.105050000000     0.741400000000    -0.487561   
O365     O      0.384110000000     0.068730000000     0.770360000000    -0.488625   
O366     O      0.421740000000     0.094780000000     0.769550000000    -0.515507   
O367     O      0.362450000000     0.097370000000     0.746380000000    -0.511703   
O368     O      0.397590000000     0.067670000000     0.743510000000    -0.515206   
O369     O      0.604920000000     0.859050000000     0.763880000000    -0.513705   
O370     O      0.611240000000     0.879930000000     0.784340000000    -0.490308   
O371     O      0.610830000000     0.880170000000     0.725380000000    -0.490221   
O372     O      0.574170000000     0.880950000000     0.740170000000    -0.488525   
O373     O      0.609950000000     0.916360000000     0.769740000000    -0.489116   
O374     O      0.572900000000     0.890760000000     0.768540000000    -0.515037   
O375     O      0.632090000000     0.887840000000     0.745230000000    -0.514023   
O376     O      0.597220000000     0.917760000000     0.742530000000    -0.515641   
O377     O      0.596960000000     0.067470000000     0.743580000000    -0.515276   
O378     O      0.610420000000     0.068510000000     0.770440000000    -0.488858   
O379     O      0.610840000000     0.105440000000     0.726910000000    -0.490174   
O380     O      0.574410000000     0.104890000000     0.741450000000    -0.487352   
O381     O      0.609480000000     0.104090000000     0.786510000000    -0.489703   
O382     O      0.572830000000     0.094620000000     0.769600000000    -0.515177   
O383     O      0.632140000000     0.097120000000     0.746460000000    -0.511934   
O384     O      0.607050000000     0.125610000000     0.765920000000    -0.511367   


