data_structure

_audit_creation_method RASPA-1.0
_audit_creation_date 2023-5-23
_audit_author_name 'Poobodin Mano'

_cell_length_a    28.233
_cell_length_b    54.5594
_cell_length_c    41.3244
_cell_angle_alpha 90.0298
_cell_angle_beta  89.9972
_cell_angle_gamma 120.036
_cell_volume      55106.9

_symmetry_cell_setting          triclinic
_symmetry_space_group_name_Hall 'P 1'
_symmetry_space_group_name_H-M  'P 1'
_symmetry_Int_Tables_number     1

_symmetry_equiv_pos_as_xyz 'x,y,z'

loop_
_atom_site_label
_atom_site_type_symbol
_atom_site_fract_x
_atom_site_fract_y
_atom_site_fract_z
_atom_site_charge
C1       C      0.755230000000     0.233810000000     0.448030000000     0.396154   
C2       C      0.708190000000     0.228810000000     0.567470000000     0.396184   
C3       C      0.853030000000     0.264980000000     0.524520000000     0.395567   
C4       C      0.677660000000     0.264940000000     0.496030000000     0.396302   
C5       C      0.688820000000     0.216490000000     0.124790000000     0.406947   
C6       C      0.688340000000     0.199110000000     0.228170000000     0.407357   
C7       C      0.562300000000     0.215370000000     0.185600000000     0.407521   
C8       C      0.562770000000     0.134480000000     0.166660000000     0.407625   
C9       C      0.371490000000     0.354160000000     0.567440000000     0.396587   
C10      C      0.321450000000     0.343730000000     0.448040000000     0.396498   
C11      C      0.402140000000     0.315800000000     0.498470000000     0.396544   
C12      C      0.225660000000     0.315290000000     0.525350000000     0.395817   
C13      C      0.362910000000     0.368370000000     0.124130000000     0.406908   
C14      C      0.362230000000     0.376900000000     0.226730000000     0.406985   
C15      C      0.495060000000     0.367400000000     0.181310000000     0.405572   
C16      C      0.494050000000     0.447210000000     0.170230000000     0.405657   
C17      C      0.320710000000     0.379220000000     0.903030000000     0.398533   
C18      C      0.376840000000     0.395820000000     0.785250000000     0.398338   
C19      C      0.227980000000     0.363020000000     0.823500000000     0.397581   
C20      C      0.403960000000     0.450550000000     0.854830000000     0.39866    
C21      C      0.756340000000     0.217120000000     0.905520000000     0.398861   
C22      C      0.702080000000     0.196550000000     0.787900000000     0.398821   
C23      C      0.850760000000     0.231290000000     0.826570000000     0.39806    
C24      C      0.676400000000     0.144040000000     0.859730000000     0.398471   
C25      C      0.430320000000     0.501230000000     0.862270000000    -0.0205299  
C26      C      0.650390000000     0.093300000000     0.866260000000    -0.0207454  
C27      C      0.580010000000     0.106520000000     0.868080000000    -0.0199378  
C28      C      0.554950000000     0.075340000000     0.868110000000     0.0141136  
C29      C      0.595040000000     0.067740000000     0.867590000000     0.0145292  
C30      C      0.581430000000     0.039290000000     0.866550000000    -0.064821   
C31      C      0.500440000000     0.487810000000     0.864130000000    -0.0199036  
C32      C      0.499180000000     0.055020000000     0.866590000000    -0.0648516  
C33      C      0.525610000000     0.018940000000     0.865660000000     0.0142248  
C34      C      0.485600000000     0.026580000000     0.865210000000     0.0146589  
C35      C      0.152400000000     0.314230000000     0.813200000000    -0.020328   
C36      C      0.925960000000     0.279800000000     0.814370000000    -0.020241   
C37      C      0.945990000000     0.241370000000     0.815900000000    -0.020833   
C38      C      0.997070000000     0.269120000000     0.812210000000     0.0143742  
C39      C      0.985570000000     0.291030000000     0.811500000000     0.013894   
C40      C      0.027270000000     0.319480000000     0.810990000000    -0.0646787  
C41      C      0.132560000000     0.352740000000     0.812820000000    -0.021006   
C42      C      0.051060000000     0.274520000000     0.812080000000    -0.0647091  
C43      C      0.081270000000     0.324870000000     0.810680000000     0.0143256  
C44      C      0.092730000000     0.302950000000     0.811030000000     0.0139511  
C45      C      0.334890000000     0.353710000000     0.949050000000    -0.0207985  
C46      C      0.304390000000     0.371850000000     0.081380000000    -0.0216401  
C47      C      0.344970000000     0.342340000000     0.072350000000    -0.0211466  
C48      C      0.326850000000     0.348470000000     0.041270000000     0.0139834  
C49      C      0.302890000000     0.364960000000     0.046490000000     0.0145695  
C50      C      0.287470000000     0.376030000000     0.020640000000    -0.0648394  
C51      C      0.289150000000     0.380780000000     0.958460000000    -0.0199962  
C52      C      0.338230000000     0.342880000000     0.009940000000    -0.0645002  
C53      C      0.297370000000     0.369750000000     0.989350000000     0.0140481  
C54      C      0.322780000000     0.353970000000     0.984060000000     0.0142512  
C55      C      0.404330000000     0.392540000000     0.608810000000    -0.0209162  
C56      C      0.404000000000     0.371680000000     0.744240000000    -0.0209415  
C57      C      0.405190000000     0.415130000000     0.729820000000    -0.0209853  
C58      C      0.411640000000     0.401400000000     0.700560000000     0.0142544  
C59      C      0.409680000000     0.376250000000     0.708660000000     0.0143009  
C60      C      0.405720000000     0.357090000000     0.684760000000    -0.0646142  
C61      C      0.394700000000     0.347110000000     0.623290000000    -0.0207499  
C62      C      0.412110000000     0.409340000000     0.668240000000    -0.0646637  
C63      C      0.405900000000     0.364960000000     0.652450000000     0.0142007  
C64      C      0.410170000000     0.390650000000     0.644330000000     0.014409   
C65      C      0.335960000000     0.376490000000     0.401870000000    -0.0208068  
C66      C      0.304870000000     0.342720000000     0.269450000000    -0.0216283  
C67      C      0.343480000000     0.393110000000     0.278620000000    -0.0212502  
C68      C      0.326530000000     0.377530000000     0.309700000000     0.0139994  
C69      C      0.303670000000     0.348700000000     0.304410000000     0.014583   
C70      C      0.289450000000     0.329660000000     0.330200000000    -0.0648637  
C71      C      0.291990000000     0.325790000000     0.392360000000    -0.019859   
C72      C      0.338000000000     0.388990000000     0.341050000000    -0.0644517  
C73      C      0.299420000000     0.341020000000     0.361510000000     0.0140504  
C74      C      0.323790000000     0.369930000000     0.366870000000     0.0142738  
C75      C      0.523340000000     0.087730000000     0.193090000000    -0.0213701  
C76      C      0.526000000000     0.491990000000     0.138960000000    -0.0222666  
C77      C      0.521380000000     0.492610000000     0.197580000000    -0.0214449  
C78      C      0.522820000000     0.018100000000     0.183790000000     0.0145242  
C79      C      0.528100000000     0.018400000000     0.150460000000     0.0142016  
C80      C      0.534440000000     0.041430000000     0.131920000000    -0.064803   
C81      C      0.542670000000     0.091060000000     0.135520000000    -0.0221849  
C82      C      0.519820000000     0.039730000000     0.200240000000    -0.0650349  
C83      C      0.533010000000     0.063520000000     0.148540000000     0.0140154  
C84      C      0.523950000000     0.062150000000     0.181600000000     0.0144556  
C85      C      0.526800000000     0.339210000000     0.212830000000    -0.0223908  
C86      C      0.524200000000     0.242180000000     0.158840000000    -0.0214069  
C87      C      0.541820000000     0.248300000000     0.216600000000    -0.0222784  
C88      C      0.533530000000     0.271250000000     0.203460000000     0.014076   
C89      C      0.525480000000     0.268240000000     0.170310000000     0.0144152  
C90      C      0.522760000000     0.288910000000     0.151610000000    -0.064894   
C91      C      0.523200000000     0.336400000000     0.154190000000    -0.0215146  
C92      C      0.535230000000     0.294140000000     0.220100000000    -0.0647665  
C93      C      0.526410000000     0.312250000000     0.168080000000     0.0143661  
C94      C      0.530480000000     0.314330000000     0.201480000000     0.0141226  
C95      C      0.756510000000     0.220200000000     0.083570000000    -0.0209984  
C96      C      0.732160000000     0.239460000000     0.950640000000    -0.0208196  
C97      C      0.789660000000     0.218950000000     0.961380000000    -0.0201837  
C98      C      0.774080000000     0.227050000000     0.992030000000     0.0140078  
C99      C      0.741570000000     0.238950000000     0.986000000000     0.014223   
C100     C      0.717300000000     0.245820000000     0.011350000000    -0.0644682  
C101     C      0.701640000000     0.242230000000     0.073230000000    -0.0207263  
C102     C      0.783330000000     0.220920000000     0.023540000000    -0.0647117  
C103     C      0.727640000000     0.240310000000     0.042940000000     0.0139723  
C104     C      0.759380000000     0.227960000000     0.048880000000     0.0144149  
C105     C      0.673180000000     0.174850000000     0.733510000000    -0.0209659  
C106     C      0.685430000000     0.238440000000     0.622260000000    -0.0206802  
C107     C      0.675080000000     0.192290000000     0.611030000000    -0.0208722  
C108     C      0.669050000000     0.195730000000     0.646220000000     0.0143947  
C109     C      0.673770000000     0.221840000000     0.652470000000     0.0141786  
C110     C      0.674100000000     0.231170000000     0.684130000000    -0.064639   
C111     C      0.675450000000     0.219140000000     0.744650000000    -0.0211507  
C112     C      0.666650000000     0.178030000000     0.671470000000    -0.0647012  
C113     C      0.669750000000     0.213020000000     0.709360000000     0.0143516  
C114     C      0.667210000000     0.187410000000     0.703140000000     0.0142336  
C115     C      0.924310000000     0.251970000000     0.534350000000    -0.0202296  
C116     C      0.154260000000     0.328370000000     0.533860000000    -0.0202392  
C117     C      0.127570000000     0.278550000000     0.534420000000    -0.0211097  
C118     C      0.078660000000     0.282080000000     0.536330000000     0.0142664  
C119     C      0.094040000000     0.310520000000     0.535880000000     0.0138928  
C120     C      0.055260000000     0.319420000000     0.535170000000    -0.0647512  
C121     C      0.951210000000     0.301800000000     0.532730000000    -0.0210977  
C122     C      0.023390000000     0.260930000000     0.536430000000    -0.0646169  
C123     C      0.000020000000     0.298280000000     0.535400000000     0.0144635  
C124     C      0.984590000000     0.269840000000     0.536180000000     0.0137543  
C125     C      0.499140000000     0.328810000000     0.490730000000    -0.0201107  
C126     C      0.580730000000     0.252070000000     0.488880000000    -0.0200911  
C127     C      0.650510000000     0.301880000000     0.490050000000    -0.0208099  
C128     C      0.594880000000     0.298460000000     0.488620000000     0.0144028  
C129     C      0.555160000000     0.270040000000     0.488400000000     0.0140634  
C130     C      0.499230000000     0.261220000000     0.489440000000    -0.0647575  
C131     C      0.429570000000     0.278980000000     0.492760000000    -0.0207032  
C132     C      0.580730000000     0.319690000000     0.488960000000    -0.0647025  
C133     C      0.485090000000     0.282430000000     0.490020000000     0.0144747  
C134     C      0.524760000000     0.310860000000     0.489330000000     0.014021   
C135     C      0.786570000000     0.249360000000     0.391910000000    -0.0201965  
C136     C      0.700830000000     0.180220000000     0.279990000000    -0.0207653  
C137     C      0.755060000000     0.230700000000     0.269640000000    -0.0209297  
C138     C      0.757500000000     0.224530000000     0.304410000000     0.0144494  
C139     C      0.726160000000     0.195710000000     0.310360000000     0.0139661  
C140     C      0.715610000000     0.184890000000     0.341970000000    -0.0644712  
C141     C      0.729950000000     0.199010000000     0.402690000000    -0.0208811  
C142     C      0.780750000000     0.244040000000     0.329750000000    -0.0647803  
C143     C      0.739200000000     0.204400000000     0.367330000000     0.014249   
C144     C      0.771250000000     0.233170000000     0.361280000000     0.0140723  
C145     C      0.755310000000     0.733690000000     0.448000000000     0.396557   
C146     C      0.708160000000     0.728650000000     0.567440000000     0.396283   
C147     C      0.853000000000     0.764790000000     0.524540000000     0.39552    
C148     C      0.677640000000     0.764750000000     0.496000000000     0.396171   
C149     C      0.688620000000     0.716480000000     0.124780000000     0.406978   
C150     C      0.688230000000     0.699130000000     0.228140000000     0.407139   
C151     C      0.562060000000     0.715330000000     0.185640000000     0.407271   
C152     C      0.562670000000     0.634460000000     0.166710000000     0.407539   
C153     C      0.371420000000     0.853900000000     0.567480000000     0.396156   
C154     C      0.321180000000     0.843350000000     0.448100000000     0.395982   
C155     C      0.402040000000     0.815530000000     0.498520000000     0.396318   
C156     C      0.225550000000     0.815020000000     0.525460000000     0.395615   
C157     C      0.362180000000     0.868070000000     0.124170000000     0.407041   
C158     C      0.361440000000     0.876430000000     0.226760000000     0.407313   
C159     C      0.494660000000     0.867290000000     0.181320000000     0.405378   
C160     C      0.492930000000     0.946940000000     0.170370000000     0.405403   
C161     C      0.320820000000     0.879250000000     0.903030000000     0.398585   
C162     C      0.376790000000     0.895690000000     0.785240000000     0.398316   
C163     C      0.227980000000     0.862960000000     0.823530000000     0.397872   
C164     C      0.404040000000     0.950530000000     0.854630000000     0.398292   
C165     C      0.756280000000     0.717130000000     0.905520000000     0.39877    
C166     C      0.702070000000     0.696510000000     0.787900000000     0.39852    
C167     C      0.850720000000     0.731260000000     0.826600000000     0.397897   
C168     C      0.676320000000     0.644040000000     0.859790000000     0.39867    
C169     C      0.430380000000     0.001230000000     0.861750000000    -0.0211724  
C170     C      0.650310000000     0.593310000000     0.866480000000    -0.0206667  
C171     C      0.579940000000     0.606540000000     0.868230000000    -0.0199775  
C172     C      0.554870000000     0.575360000000     0.868480000000     0.0141318  
C173     C      0.594960000000     0.567760000000     0.867990000000     0.0144854  
C174     C      0.581340000000     0.539300000000     0.867080000000    -0.064734   
C175     C      0.500610000000     0.987800000000     0.863550000000    -0.0206301  
C176     C      0.499100000000     0.555040000000     0.867040000000    -0.0647702  
C177     C      0.525510000000     0.518950000000     0.866420000000     0.0140678  
C178     C      0.485490000000     0.526600000000     0.865890000000     0.0145384  
C179     C      0.152380000000     0.814170000000     0.813270000000    -0.0203095  
C180     C      0.925950000000     0.779770000000     0.814400000000    -0.0201537  
C181     C      0.945960000000     0.741330000000     0.815960000000    -0.0208907  
C182     C      0.997050000000     0.769080000000     0.812270000000     0.0144135  
C183     C      0.985560000000     0.790980000000     0.811540000000     0.0138563  
C184     C      0.027260000000     0.819440000000     0.811020000000    -0.0646765  
C185     C      0.132560000000     0.852690000000     0.812860000000    -0.02103    
C186     C      0.051030000000     0.774470000000     0.812150000000    -0.0647476  
C187     C      0.081260000000     0.824820000000     0.810720000000     0.0143168  
C188     C      0.092710000000     0.802900000000     0.811100000000     0.0139611  
C189     C      0.334850000000     0.853700000000     0.949070000000    -0.0207487  
C190     C      0.303820000000     0.871620000000     0.081380000000    -0.0215142  
C191     C      0.344300000000     0.842070000000     0.072380000000    -0.0211384  
C192     C      0.326360000000     0.848280000000     0.041280000000     0.0139257  
C193     C      0.302460000000     0.864800000000     0.046480000000     0.0145501  
C194     C      0.287240000000     0.875950000000     0.020630000000    -0.064831   
C195     C      0.289240000000     0.880830000000     0.958460000000    -0.0199323  
C196     C      0.337870000000     0.842750000000     0.009950000000    -0.0643718  
C197     C      0.297260000000     0.869730000000     0.989340000000     0.0140343  
C198     C      0.322610000000     0.853910000000     0.984070000000     0.0142155  
C199     C      0.404330000000     0.892310000000     0.608800000000    -0.0208695  
C200     C      0.403930000000     0.871510000000     0.744260000000    -0.0210555  
C201     C      0.405140000000     0.914960000000     0.729790000000    -0.0209169  
C202     C      0.411610000000     0.901220000000     0.700550000000     0.014199   
C203     C      0.409640000000     0.876070000000     0.708680000000     0.0143756  
C204     C      0.405680000000     0.856900000000     0.684800000000    -0.0646341  
C205     C      0.394670000000     0.846880000000     0.623330000000    -0.0208026  
C206     C      0.412100000000     0.909140000000     0.668220000000    -0.0646171  
C207     C      0.405890000000     0.864750000000     0.652470000000     0.0142126  
C208     C      0.410160000000     0.890440000000     0.644340000000     0.0143866  
C209     C      0.335400000000     0.876040000000     0.401900000000    -0.0208816  
C210     C      0.304320000000     0.842200000000     0.269510000000    -0.0216255  
C211     C      0.342510000000     0.892560000000     0.278650000000    -0.0211566  
C212     C      0.325730000000     0.877000000000     0.309740000000     0.0139682  
C213     C      0.303110000000     0.848180000000     0.304470000000     0.0145883  
C214     C      0.289090000000     0.829160000000     0.330270000000    -0.0648617  
C215     C      0.291770000000     0.825340000000     0.392430000000    -0.0199893  
C216     C      0.337180000000     0.888470000000     0.341080000000    -0.0644364  
C217     C      0.299030000000     0.840540000000     0.361580000000     0.0140792  
C218     C      0.323190000000     0.869440000000     0.366910000000     0.0142862  
C219     C      0.524020000000     0.587770000000     0.193190000000    -0.0214162  
C220     C      0.524680000000     0.991690000000     0.139050000000    -0.0230098  
C221     C      0.519180000000     0.992210000000     0.197730000000    -0.0220532  
C222     C      0.525200000000     0.518590000000     0.183770000000     0.0143775  
C223     C      0.529850000000     0.518800000000     0.150400000000     0.0140514  
C224     C      0.535310000000     0.541650000000     0.131870000000    -0.0647276  
C225     C      0.542650000000     0.591070000000     0.135540000000    -0.0222229  
C226     C      0.521650000000     0.540050000000     0.200270000000    -0.0649235  
C227     C      0.533750000000     0.563670000000     0.148560000000     0.0140373  
C228     C      0.525120000000     0.562340000000     0.181660000000     0.0144447  
C229     C      0.526620000000     0.839200000000     0.212830000000    -0.022257   
C230     C      0.523920000000     0.742130000000     0.158880000000    -0.0215221  
C231     C      0.541640000000     0.748280000000     0.216630000000    -0.0222434  
C232     C      0.533350000000     0.771230000000     0.203490000000     0.0140208  
C233     C      0.525240000000     0.768200000000     0.170340000000     0.0144857  
C234     C      0.522490000000     0.788860000000     0.151640000000    -0.0649286  
C235     C      0.522920000000     0.836350000000     0.154200000000    -0.0215548  
C236     C      0.535080000000     0.794130000000     0.220120000000    -0.064686   
C237     C      0.526180000000     0.812210000000     0.168090000000     0.0144204  
C238     C      0.530310000000     0.814320000000     0.201490000000     0.0140224  
C239     C      0.756330000000     0.720180000000     0.083570000000    -0.021121   
C240     C      0.732060000000     0.739460000000     0.950640000000    -0.0208951  
C241     C      0.789580000000     0.718960000000     0.961390000000    -0.020193   
C242     C      0.773960000000     0.727050000000     0.992040000000     0.0140037  
C243     C      0.741440000000     0.738940000000     0.986000000000     0.0142572  
C244     C      0.717140000000     0.745800000000     0.011330000000    -0.0644522  
C245     C      0.701430000000     0.742210000000     0.073220000000    -0.0208417  
C246     C      0.783190000000     0.720910000000     0.023560000000    -0.0647965  
C247     C      0.727460000000     0.740290000000     0.042930000000     0.0139661  
C248     C      0.759210000000     0.727940000000     0.048880000000     0.0145004  
C249     C      0.673190000000     0.674780000000     0.733520000000    -0.021043   
C250     C      0.685370000000     0.738300000000     0.622220000000    -0.0205753  
C251     C      0.675040000000     0.692150000000     0.611030000000    -0.0209417  
C252     C      0.669020000000     0.695610000000     0.646210000000     0.014438   
C253     C      0.673710000000     0.721720000000     0.652440000000     0.0141317  
C254     C      0.674050000000     0.731060000000     0.684090000000    -0.0645996  
C255     C      0.675430000000     0.719070000000     0.744620000000    -0.0210171  
C256     C      0.666640000000     0.677930000000     0.671470000000    -0.0646625  
C257     C      0.669720000000     0.712930000000     0.709330000000     0.0143087  
C258     C      0.667200000000     0.687320000000     0.703130000000     0.0142573  
C259     C      0.924230000000     0.751750000000     0.534420000000    -0.0202889  
C260     C      0.154190000000     0.828120000000     0.534000000000    -0.0204823  
C261     C      0.127460000000     0.778290000000     0.534570000000    -0.0210665  
C262     C      0.078570000000     0.781830000000     0.536470000000     0.0141902  
C263     C      0.093970000000     0.810270000000     0.536020000000     0.014008   
C264     C      0.055210000000     0.819180000000     0.535300000000    -0.0647888  
C265     C      0.951170000000     0.801590000000     0.532810000000    -0.0210937  
C266     C      0.023290000000     0.760690000000     0.536550000000    -0.0645394  
C267     C      0.999960000000     0.798050000000     0.535510000000     0.0144365  
C268     C      0.984510000000     0.769610000000     0.536280000000     0.0137629  
C269     C      0.499030000000     0.828560000000     0.490750000000    -0.0201076  
C270     C      0.580710000000     0.751860000000     0.488840000000    -0.0201308  
C271     C      0.650460000000     0.801670000000     0.490010000000    -0.0207157  
C272     C      0.594830000000     0.798250000000     0.488590000000     0.0143671  
C273     C      0.555120000000     0.769820000000     0.488380000000     0.0140694  
C274     C      0.499180000000     0.760990000000     0.489440000000    -0.0647193  
C275     C      0.429500000000     0.778730000000     0.492800000000    -0.0205997  
C276     C      0.580650000000     0.819460000000     0.488940000000    -0.0646509  
C277     C      0.485020000000     0.782190000000     0.490030000000     0.0144548  
C278     C      0.524680000000     0.810630000000     0.489330000000     0.0140057  
C279     C      0.786620000000     0.749300000000     0.391890000000    -0.0200869  
C280     C      0.700830000000     0.680220000000     0.279920000000    -0.0208636  
C281     C      0.754960000000     0.730720000000     0.269620000000    -0.0209782  
C282     C      0.757460000000     0.724530000000     0.304370000000     0.0144283  
C283     C      0.726180000000     0.695710000000     0.310290000000     0.0140365  
C284     C      0.715680000000     0.684850000000     0.341890000000    -0.0645617  
C285     C      0.730070000000     0.698930000000     0.402620000000    -0.0209737  
C286     C      0.780720000000     0.744020000000     0.329720000000    -0.0647059  
C287     C      0.739280000000     0.704350000000     0.367260000000     0.0143271  
C288     C      0.771280000000     0.733120000000     0.361240000000     0.0139881  
H1       H      0.570520000000     0.114010000000     0.890870000000     0.0465759  
H2       H      0.674850000000     0.094700000000     0.887960000000     0.0455484  
H3       H      0.612630000000     0.033300000000     0.865860000000     0.0469882  
H4       H      0.468040000000     0.061050000000     0.865930000000     0.0469967  
H5       H      0.403860000000     0.498790000000     0.883340000000     0.0460397  
H6       H      0.516280000000     0.481620000000     0.842880000000     0.0476211  
H7       H      0.565330000000     0.113830000000     0.847270000000     0.0482735  
H8       H      0.673040000000     0.093300000000     0.844250000000     0.0496861  
H9       H      0.508540000000     0.479040000000     0.886360000000     0.0470364  
H10      H      0.409800000000     0.502370000000     0.839830000000     0.049288   
H11      H      0.947170000000     0.230050000000     0.837980000000     0.0482024  
H12      H      0.916240000000     0.289070000000     0.835560000000     0.0482388  
H13      H      0.018160000000     0.336530000000     0.811660000000     0.0468605  
H14      H      0.060220000000     0.257510000000     0.813590000000     0.0468393  
H15      H      0.163000000000     0.305740000000     0.834760000000     0.0484906  
H16      H      0.138660000000     0.365520000000     0.790680000000     0.045732   
H17      H      0.939020000000     0.227630000000     0.794500000000     0.0456841  
H18      H      0.909530000000     0.284380000000     0.792190000000     0.0462009  
H19      H      0.132350000000     0.365030000000     0.834240000000     0.0480241  
H20      H      0.167830000000     0.308790000000     0.791190000000     0.0461066  
H21      H      0.388840000000     0.348310000000     0.071440000000     0.0506655  
H22      H      0.325000000000     0.395100000000     0.085410000000     0.0496186  
H23      H      0.270590000000     0.389750000000     0.024660000000     0.0465122  
H24      H      0.359840000000     0.331430000000     0.005970000000     0.046744   
H25      H      0.379450000000     0.362920000000     0.944690000000     0.0480805  
H26      H      0.244870000000     0.371780000000     0.953300000000     0.046764   
H27      H      0.320000000000     0.319470000000     0.078300000000     0.044996   
H28      H      0.262310000000     0.361840000000     0.091440000000     0.0437676  
H29      H      0.309130000000     0.404260000000     0.958830000000     0.0476876  
H30      H      0.312930000000     0.331840000000     0.939140000000     0.0456089  
H31      H      0.369470000000     0.418390000000     0.727520000000     0.0506584  
H32      H      0.368060000000     0.350820000000     0.750530000000     0.0475344  
H33      H      0.400390000000     0.336590000000     0.691000000000     0.0469027  
H34      H      0.411630000000     0.428490000000     0.662040000000     0.0469299  
H35      H      0.371120000000     0.397100000000     0.602830000000     0.0473822  
H36      H      0.428450000000     0.342650000000     0.618770000000     0.0451074  
H37      H      0.442500000000     0.435960000000     0.734140000000     0.0448755  
H38      H      0.441430000000     0.372940000000     0.754650000000     0.0470161  
H39      H      0.355760000000     0.326650000000     0.625790000000     0.0503058  
H40      H      0.443220000000     0.409270000000     0.598030000000     0.0472892  
H41      H      0.387030000000     0.410290000000     0.279350000000     0.0507653  
H42      H      0.326220000000     0.330550000000     0.265140000000     0.0498063  
H43      H      0.273340000000     0.307270000000     0.326100000000     0.0465516  
H44      H      0.358720000000     0.411630000000     0.345060000000     0.0467256  
H45      H      0.380480000000     0.390610000000     0.406150000000     0.0481523  
H46      H      0.247880000000     0.311330000000     0.397500000000     0.0470806  
H47      H      0.317450000000     0.402490000000     0.272960000000     0.0449915  
H48      H      0.262650000000     0.330550000000     0.259630000000     0.0437149  
H49      H      0.313080000000     0.313190000000     0.391930000000     0.0474564  
H50      H      0.313580000000     0.386720000000     0.411880000000     0.0457988  
H51      H      0.485010000000     0.481360000000     0.213590000000     0.0505726  
H52      H      0.491450000000     0.480660000000     0.121740000000     0.0496903  
H53      H      0.540270000000     0.042150000000     0.105980000000     0.0464594  
H54      H      0.514550000000     0.039150000000     0.226230000000     0.0467011  
H55      H      0.481580000000     0.082200000000     0.201090000000     0.0460305  
H56      H      0.583310000000     0.102870000000     0.123560000000     0.0496931  
H57      H      0.558720000000     0.497890000000     0.211770000000     0.0459715  
H58      H      0.564510000000     0.496260000000     0.126840000000     0.0432789  
H59      H      0.510510000000     0.087760000000     0.117730000000     0.0433637  
H60      H      0.552280000000     0.097950000000     0.213560000000     0.0505723  
H61      H      0.508820000000     0.234960000000     0.233960000000     0.0433518  
H62      H      0.482450000000     0.226390000000     0.150480000000     0.0459969  
H63      H      0.518050000000     0.286940000000     0.125580000000     0.0466503  
H64      H      0.540000000000     0.296130000000     0.246120000000     0.0464449  
H65      H      0.492090000000     0.332700000000     0.229900000000     0.0499156  
H66      H      0.560940000000     0.350460000000     0.140330000000     0.0459175  
H67      H      0.581950000000     0.257120000000     0.229110000000     0.0498469  
H68      H      0.553530000000     0.246840000000     0.138610000000     0.050821   
H69      H      0.487250000000     0.328970000000     0.137860000000     0.0507781  
H70      H      0.565250000000     0.354780000000     0.225100000000     0.0432842  
H71      H      0.776810000000     0.196070000000     0.961120000000     0.0485461  
H72      H      0.687820000000     0.227670000000     0.944640000000     0.048323   
H73      H      0.689970000000     0.253950000000     0.006680000000     0.0466133  
H74      H      0.806100000000     0.210140000000     0.028020000000     0.0465019  
H75      H      0.742560000000     0.197320000000     0.086590000000     0.0491033  
H76      H      0.718240000000     0.264710000000     0.080340000000     0.0445408  
H77      H      0.834620000000     0.231520000000     0.957590000000     0.0459094  
H78      H      0.750080000000     0.261550000000     0.941730000000     0.0456626  
H79      H      0.656480000000     0.232040000000     0.070510000000     0.0500444  
H80      H      0.797090000000     0.232870000000     0.095330000000     0.0443288  
H81      H      0.636180000000     0.175200000000     0.600660000000     0.0471902  
H82      H      0.651980000000     0.242900000000     0.616660000000     0.0451437  
H83      H      0.679850000000     0.252000000000     0.688920000000     0.0468791  
H84      H      0.666740000000     0.158540000000     0.666740000000     0.0469166  
H85      H      0.635530000000     0.154370000000     0.738630000000     0.0448046  
H86      H      0.711640000000     0.240150000000     0.750100000000     0.047568   
H87      H      0.708150000000     0.187360000000     0.606170000000     0.0473241  
H88      H      0.724580000000     0.258880000000     0.624060000000     0.0502513  
H89      H      0.638200000000     0.218530000000     0.754360000000     0.0469282  
H90      H      0.708520000000     0.171200000000     0.732190000000     0.0507291  
H91      H      0.125750000000     0.265840000000     0.512940000000     0.0475839  
H92      H      0.166760000000     0.342240000000     0.512130000000     0.0483673  
H93      H      0.067480000000     0.341630000000     0.533840000000     0.0468663  
H94      H      0.011170000000     0.238700000000     0.536060000000     0.046856   
H95      H      0.911650000000     0.237460000000     0.513170000000     0.0481938  
H96      H      0.947440000000     0.312940000000     0.554230000000     0.0458846  
H97      H      0.131500000000     0.268120000000     0.556530000000     0.0458616  
H98      H      0.170990000000     0.341900000000     0.555730000000     0.0464978  
H99      H      0.952990000000     0.313840000000     0.510630000000     0.0479724  
H100     H      0.907640000000     0.239110000000     0.556670000000     0.0465192  
H101     H      0.673010000000     0.313750000000     0.512030000000     0.0491411  
H102     H      0.566640000000     0.237540000000     0.510040000000     0.0480466  
H103     H      0.468360000000     0.239010000000     0.490240000000     0.0469465  
H104     H      0.611630000000     0.341900000000     0.489380000000     0.0469472  
H105     H      0.514130000000     0.343330000000     0.511900000000     0.0476419  
H106     H      0.403760000000     0.267400000000     0.471590000000     0.0462165  
H107     H      0.674920000000     0.313140000000     0.468330000000     0.0458304  
H108     H      0.571030000000     0.239240000000     0.466400000000     0.047007   
H109     H      0.408570000000     0.267400000000     0.515190000000     0.0489585  
H110     H      0.507760000000     0.341640000000     0.468340000000     0.0472879  
H111     H      0.795890000000     0.239240000000     0.258150000000     0.0443255  
H112     H      0.717930000000     0.166500000000     0.273160000000     0.0445311  
H113     H      0.688710000000     0.162560000000     0.346630000000     0.0466357  
H114     H      0.803270000000     0.266610000000     0.325250000000     0.04655    
H115     H      0.831580000000     0.260470000000     0.395620000000     0.0462013  
H116     H      0.685640000000     0.187760000000     0.408730000000     0.0483059  
H117     H      0.740740000000     0.246180000000     0.266350000000     0.0491224  
H118     H      0.655670000000     0.166840000000     0.282460000000     0.0500209  
H119     H      0.748050000000     0.186280000000     0.411580000000     0.0459116  
H120     H      0.772920000000     0.265270000000     0.392240000000     0.0485463  
H121     H      0.570550000000     0.614150000000     0.890960000000     0.0466216  
H122     H      0.674910000000     0.594810000000     0.888150000000     0.0455574  
H123     H      0.612530000000     0.533310000000     0.866330000000     0.0469566  
H124     H      0.467970000000     0.561080000000     0.866250000000     0.0469396  
H125     H      0.404150000000     0.998730000000     0.882970000000     0.046441   
H126     H      0.515730000000     0.981550000000     0.842010000000     0.0479951  
H127     H      0.565190000000     0.613750000000     0.847360000000     0.048248   
H128     H      0.672800000000     0.593200000000     0.844450000000     0.0496361  
H129     H      0.508570000000     0.979080000000     0.885860000000     0.0474577  
H130     H      0.410060000000     0.002130000000     0.839100000000     0.049666   
H131     H      0.947120000000     0.730010000000     0.838040000000     0.0482223  
H132     H      0.916220000000     0.789050000000     0.835580000000     0.0482165  
H133     H      0.018160000000     0.836490000000     0.811680000000     0.0468702  
H134     H      0.060180000000     0.757460000000     0.813670000000     0.0468572  
H135     H      0.162970000000     0.805690000000     0.834840000000     0.0484747  
H136     H      0.138650000000     0.865460000000     0.790710000000     0.0457357  
H137     H      0.938990000000     0.727580000000     0.794560000000     0.0456929  
H138     H      0.909530000000     0.784350000000     0.792200000000     0.0461726  
H139     H      0.132350000000     0.864980000000     0.834270000000     0.0480276  
H140     H      0.167800000000     0.808710000000     0.791270000000     0.0461037  
H141     H      0.388150000000     0.848000000000     0.071520000000     0.0506486  
H142     H      0.324440000000     0.894870000000     0.085460000000     0.0495662  
H143     H      0.270400000000     0.889690000000     0.024640000000     0.0465002  
H144     H      0.359440000000     0.831260000000     0.005990000000     0.0466691  
H145     H      0.379430000000     0.862890000000     0.944780000000     0.0480368  
H146     H      0.244990000000     0.871890000000     0.953240000000     0.0467621  
H147     H      0.319230000000     0.819200000000     0.078270000000     0.0449934  
H148     H      0.261680000000     0.861620000000     0.091370000000     0.0437065  
H149     H      0.309310000000     0.904320000000     0.958880000000     0.0476327  
H150     H      0.312900000000     0.831850000000     0.939110000000     0.0456065  
H151     H      0.369430000000     0.918220000000     0.727470000000     0.0506546  
H152     H      0.367990000000     0.850660000000     0.750560000000     0.0475616  
H153     H      0.400340000000     0.836400000000     0.691060000000     0.0469048  
H154     H      0.411620000000     0.928290000000     0.662000000000     0.0469062  
H155     H      0.371130000000     0.896880000000     0.602820000000     0.0473706  
H156     H      0.428420000000     0.842420000000     0.618830000000     0.045127   
H157     H      0.442450000000     0.935790000000     0.734110000000     0.044841   
H158     H      0.441360000000     0.872770000000     0.754690000000     0.0470239  
H159     H      0.355730000000     0.826430000000     0.625850000000     0.0503249  
H160     H      0.443230000000     0.909030000000     0.598020000000     0.0472799  
H161     H      0.385980000000     0.909830000000     0.279350000000     0.050797   
H162     H      0.325860000000     0.830120000000     0.265190000000     0.0497959  
H163     H      0.273150000000     0.806780000000     0.326190000000     0.0465493  
H164     H      0.357730000000     0.911110000000     0.345080000000     0.0467221  
H165     H      0.379900000000     0.890230000000     0.406150000000     0.0481859  
H166     H      0.247700000000     0.810810000000     0.397600000000     0.0471362  
H167     H      0.316270000000     0.901830000000     0.273010000000     0.0449522  
H168     H      0.262100000000     0.829940000000     0.259720000000     0.0437013  
H169     H      0.313030000000     0.812830000000     0.392000000000     0.0474803  
H170     H      0.312910000000     0.886200000000     0.411920000000     0.0458143  
H171     H      0.482110000000     0.980680000000     0.213140000000     0.0509694  
H172     H      0.489920000000     0.980160000000     0.122010000000     0.050103   
H173     H      0.540530000000     0.542270000000     0.105880000000     0.0464189  
H174     H      0.516480000000     0.539440000000     0.226270000000     0.046657   
H175     H      0.482210000000     0.582030000000     0.201330000000     0.046027   
H176     H      0.583050000000     0.603010000000     0.123340000000     0.0497471  
H177     H      0.556430000000     0.997510000000     0.212020000000     0.0463597  
H178     H      0.563530000000     0.996020000000     0.127350000000     0.0436743  
H179     H      0.510090000000     0.587540000000     0.117940000000     0.0433393  
H180     H      0.553090000000     0.598130000000     0.213570000000     0.0506547  
H181     H      0.508660000000     0.734960000000     0.234010000000     0.0433368  
H182     H      0.482150000000     0.726330000000     0.150560000000     0.0460285  
H183     H      0.517730000000     0.786870000000     0.125610000000     0.0466556  
H184     H      0.539890000000     0.796140000000     0.246140000000     0.046417   
H185     H      0.491950000000     0.832690000000     0.229940000000     0.0498869  
H186     H      0.560640000000     0.850410000000     0.140320000000     0.0458976  
H187     H      0.581780000000     0.757110000000     0.229120000000     0.0498461  
H188     H      0.553200000000     0.746760000000     0.138640000000     0.0508476  
H189     H      0.486960000000     0.828900000000     0.137880000000     0.0507687  
H190     H      0.565100000000     0.854790000000     0.225060000000     0.0432385  
H191     H      0.776740000000     0.696080000000     0.961130000000     0.0485547  
H192     H      0.687730000000     0.727660000000     0.944620000000     0.0483519  
H193     H      0.689800000000     0.753930000000     0.006660000000     0.0466009  
H194     H      0.805980000000     0.710150000000     0.028040000000     0.0465444  
H195     H      0.742380000000     0.697310000000     0.086590000000     0.0491335  
H196     H      0.718010000000     0.764680000000     0.080330000000     0.0445817  
H197     H      0.834540000000     0.731540000000     0.957610000000     0.0459156  
H198     H      0.749980000000     0.761550000000     0.941730000000     0.045685   
H199     H      0.656280000000     0.732010000000     0.070490000000     0.0500741  
H200     H      0.796900000000     0.732860000000     0.095350000000     0.0443635  
H201     H      0.636140000000     0.675050000000     0.600670000000     0.0472047  
H202     H      0.651900000000     0.742750000000     0.616610000000     0.0451158  
H203     H      0.679780000000     0.751890000000     0.688860000000     0.0468664  
H204     H      0.666750000000     0.658430000000     0.666770000000     0.0468842  
H205     H      0.635550000000     0.654300000000     0.738660000000     0.0448362  
H206     H      0.711610000000     0.740090000000     0.750060000000     0.0475347  
H207     H      0.708120000000     0.687220000000     0.606180000000     0.0473243  
H208     H      0.724500000000     0.758750000000     0.624000000000     0.0502416  
H209     H      0.638170000000     0.718470000000     0.754330000000     0.0468844  
H210     H      0.708540000000     0.671140000000     0.732210000000     0.0507508  
H211     H      0.125630000000     0.765580000000     0.513090000000     0.0475787  
H212     H      0.166700000000     0.841980000000     0.512270000000     0.0484442  
H213     H      0.067440000000     0.841390000000     0.533960000000     0.0468806  
H214     H      0.011060000000     0.738450000000     0.536170000000     0.0468166  
H215     H      0.911590000000     0.737250000000     0.513230000000     0.0482148  
H216     H      0.947380000000     0.812720000000     0.554310000000     0.0458994  
H217     H      0.131390000000     0.767860000000     0.556680000000     0.0458601  
H218     H      0.170920000000     0.841630000000     0.555870000000     0.0465771  
H219     H      0.953000000000     0.813630000000     0.510710000000     0.047987   
H220     H      0.907520000000     0.738890000000     0.556740000000     0.0465395  
H221     H      0.672970000000     0.813550000000     0.511990000000     0.0491272  
H222     H      0.566640000000     0.737330000000     0.510000000000     0.0480753  
H223     H      0.468330000000     0.738770000000     0.490250000000     0.0469274  
H224     H      0.611540000000     0.841680000000     0.489370000000     0.0469182  
H225     H      0.514040000000     0.843080000000     0.511920000000     0.0476371  
H226     H      0.403670000000     0.767140000000     0.471630000000     0.0461903  
H227     H      0.674850000000     0.812940000000     0.468290000000     0.045801   
H228     H      0.571020000000     0.739040000000     0.466360000000     0.0470285  
H229     H      0.408530000000     0.767150000000     0.515240000000     0.0489444  
H230     H      0.507620000000     0.841390000000     0.468370000000     0.0472982  
H231     H      0.795770000000     0.739290000000     0.258100000000     0.0443405  
H232     H      0.717950000000     0.666530000000     0.273040000000     0.0445747  
H233     H      0.688820000000     0.662520000000     0.346530000000     0.0466735  
H234     H      0.803200000000     0.766600000000     0.325240000000     0.0465173  
H235     H      0.831640000000     0.760410000000     0.395580000000     0.0461723  
H236     H      0.685770000000     0.687660000000     0.408680000000     0.0483449  
H237     H      0.740580000000     0.746180000000     0.266360000000     0.0491308  
H238     H      0.655670000000     0.666820000000     0.282410000000     0.0500567  
H239     H      0.748210000000     0.686210000000     0.411480000000     0.0459114  
H240     H      0.772950000000     0.765200000000     0.392250000000     0.0485287  
In1      In     0.749430000000     0.248160000000     0.508930000000     2.47743    
In2      In     0.624240000000     0.190960000000     0.176310000000     2.38654    
In3      In     0.329350000000     0.332190000000     0.509800000000     2.47712    
In4      In     0.430000000000     0.390390000000     0.175560000000     2.38541    
In5      In     0.331780000000     0.396690000000     0.841710000000     2.47147    
In6      In     0.747130000000     0.197800000000     0.845120000000     2.47       
In7      In     0.749430000000     0.747990000000     0.508910000000     2.47781    
In8      In     0.624050000000     0.690960000000     0.176320000000     2.38637    
In9      In     0.329210000000     0.831890000000     0.509870000000     2.47739    
In10     In     0.429270000000     0.890100000000     0.175600000000     2.38571    
In11     In     0.331800000000     0.896640000000     0.841690000000     2.47118    
In12     In     0.747090000000     0.697780000000     0.845140000000     2.47001    
N1       N      0.441920000000     0.477930000000     0.860790000000    -0.163204   
N2       N      0.638730000000     0.116610000000     0.865690000000    -0.16316    
N3       N      0.175020000000     0.344920000000     0.815550000000    -0.164229   
N4       N      0.903570000000     0.249240000000     0.818210000000    -0.16425    
N5       N      0.314500000000     0.371130000000     0.934490000000    -0.164286   
N6       N      0.334780000000     0.359340000000     0.095890000000    -0.16565    
N7       N      0.391680000000     0.364530000000     0.597260000000    -0.163026   
N8       N      0.397610000000     0.395220000000     0.755850000000    -0.163463   
N9       N      0.316410000000     0.348560000000     0.416380000000    -0.163659   
N10      N      0.334020000000     0.371020000000     0.254970000000    -0.165583   
N11      N      0.539260000000     0.105890000000     0.164330000000    -0.165877   
N12      N      0.517700000000     0.475850000000     0.168920000000    -0.165852   
N13      N      0.519040000000     0.351160000000     0.182790000000    -0.165646   
N14      N      0.538890000000     0.231840000000     0.187750000000    -0.165762   
N15      N      0.717220000000     0.227560000000     0.097000000000    -0.165636   
N16      N      0.760810000000     0.225800000000     0.936710000000    -0.164153   
N17      N      0.681250000000     0.195960000000     0.758140000000    -0.163603   
N18      N      0.688200000000     0.219820000000     0.597660000000    -0.163098   
N19      N      0.905700000000     0.272590000000     0.531270000000    -0.163471   
N20      N      0.172990000000     0.307730000000     0.532010000000    -0.163696   
N21      N      0.440590000000     0.308210000000     0.493550000000    -0.162611   
N22      N      0.639410000000     0.272630000000     0.490840000000    -0.16263    
N23      N      0.758410000000     0.227520000000     0.416620000000    -0.163395   
N24      N      0.716410000000     0.202900000000     0.256130000000    -0.165766   
N25      N      0.442050000000     0.977950000000     0.860410000000    -0.163098   
N26      N      0.638650000000     0.616610000000     0.865800000000    -0.163152   
N27      N      0.175010000000     0.844860000000     0.815600000000    -0.16428    
N28      N      0.903540000000     0.749210000000     0.818250000000    -0.164195   
N29      N      0.314590000000     0.871170000000     0.934510000000    -0.164209   
N30      N      0.334090000000     0.859060000000     0.095920000000    -0.165735   
N31      N      0.391650000000     0.864290000000     0.597290000000    -0.162931   
N32      N      0.397540000000     0.895070000000     0.755830000000    -0.163391   
N33      N      0.316080000000     0.848140000000     0.416430000000    -0.163512   
N34      N      0.333240000000     0.870500000000     0.255010000000    -0.165638   
N35      N      0.539340000000     0.605880000000     0.164400000000    -0.165876   
N36      N      0.516170000000     0.975580000000     0.169080000000    -0.165685   
N37      N      0.518760000000     0.851110000000     0.182800000000    -0.16568    
N38      N      0.538650000000     0.731810000000     0.187790000000    -0.165643   
N39      N      0.717020000000     0.727540000000     0.097000000000    -0.165681   
N40      N      0.760740000000     0.725810000000     0.936710000000    -0.164119   
N41      N      0.681250000000     0.695910000000     0.758130000000    -0.163528   
N42      N      0.688150000000     0.719680000000     0.597640000000    -0.163061   
N43      N      0.905650000000     0.772390000000     0.531320000000    -0.163466   
N44      N      0.172900000000     0.807460000000     0.532150000000    -0.163679   
N45      N      0.440500000000     0.807950000000     0.493590000000    -0.162595   
N46      N      0.639390000000     0.772430000000     0.490800000000    -0.16265    
N47      N      0.758500000000     0.727440000000     0.416580000000    -0.163492   
N48      N      0.716330000000     0.702920000000     0.256090000000    -0.165688   
O1       O      0.664740000000     0.239130000000     0.496840000000    -0.516573   
O2       O      0.727790000000     0.282840000000     0.501230000000    -0.491851   
O3       O      0.707600000000     0.212250000000     0.545610000000    -0.493283   
O4       O      0.728230000000     0.215010000000     0.469200000000    -0.493963   
O5       O      0.837390000000     0.282880000000     0.519870000000    -0.495134   
O6       O      0.778750000000     0.259180000000     0.457780000000    -0.520797   
O7       O      0.729320000000     0.254590000000     0.559620000000    -0.517828   
O8       O      0.816570000000     0.239250000000     0.521760000000    -0.519068   
O9       O      0.560780000000     0.146420000000     0.192310000000    -0.495686   
O10      O      0.592620000000     0.151040000000     0.144710000000    -0.497517   
O11      O      0.696120000000     0.219340000000     0.209860000000    -0.492361   
O12      O      0.696710000000     0.200280000000     0.143030000000    -0.491777   
O13      O      0.561000000000     0.202640000000     0.159890000000    -0.495191   
O14      O      0.650330000000     0.220460000000     0.133150000000    -0.500057   
O15      O      0.650230000000     0.175120000000     0.219690000000    -0.500264   
O16      O      0.591580000000     0.214080000000     0.207800000000    -0.497145   
O17      O      0.261700000000     0.340950000000     0.521440000000    -0.520289   
O18      O      0.241750000000     0.297450000000     0.521930000000    -0.494677   
O19      O      0.346010000000     0.363520000000     0.468580000000    -0.49381    
O20      O      0.371860000000     0.369700000000     0.544410000000    -0.493434   
O21      O      0.352190000000     0.297830000000     0.504050000000    -0.49247    
O22      O      0.350260000000     0.328060000000     0.561170000000    -0.517549   
O23      O      0.301770000000     0.318820000000     0.458770000000    -0.520768   
O24      O      0.414540000000     0.341550000000     0.498330000000    -0.515793   
O25      O      0.485020000000     0.434220000000     0.196700000000    -0.496215   
O26      O      0.474530000000     0.431560000000     0.145690000000    -0.495041   
O27      O      0.392500000000     0.401920000000     0.217190000000    -0.496669   
O28      O      0.394020000000     0.359560000000     0.133700000000    -0.49672    
O29      O      0.474880000000     0.372680000000     0.205720000000    -0.494929   
O30      O      0.363090000000     0.387550000000     0.141360000000    -0.495284   
O31      O      0.363500000000     0.358090000000     0.209520000000    -0.495372   
O32      O      0.486230000000     0.375700000000     0.154780000000    -0.496076   
O33      O      0.416510000000     0.431290000000     0.854680000000    -0.515779   
O34      O      0.354300000000     0.442700000000     0.848530000000    -0.492758   
O35      O      0.372410000000     0.379290000000     0.808170000000    -0.493092   
O36      O      0.346310000000     0.372770000000     0.882590000000    -0.493646   
O37      O      0.247070000000     0.389380000000     0.827650000000    -0.494453   
O38      O      0.301420000000     0.394130000000     0.892410000000    -0.520923   
O39      O      0.359290000000     0.412610000000     0.791120000000    -0.516662   
O40      O      0.261180000000     0.354230000000     0.828030000000    -0.520274   
O41      O      0.663190000000     0.163040000000     0.858970000000    -0.516206   
O42      O      0.726210000000     0.152130000000     0.853580000000    -0.491641   
O43      O      0.719130000000     0.179840000000     0.795270000000    -0.516926   
O44      O      0.728190000000     0.221230000000     0.884520000000    -0.49435    
O45      O      0.832120000000     0.205140000000     0.831990000000    -0.494933   
O46      O      0.779460000000     0.203750000000     0.895850000000    -0.520769   
O47      O      0.707070000000     0.214140000000     0.809660000000    -0.492846   
O48      O      0.817240000000     0.240010000000     0.830130000000    -0.519359   
O49      O      0.664740000000     0.738940000000     0.496810000000    -0.516571   
O50      O      0.727770000000     0.782660000000     0.501210000000    -0.491807   
O51      O      0.707570000000     0.712090000000     0.545590000000    -0.493481   
O52      O      0.728300000000     0.714880000000     0.469150000000    -0.494302   
O53      O      0.837390000000     0.782690000000     0.519890000000    -0.495319   
O54      O      0.778800000000     0.759050000000     0.457770000000    -0.520918   
O55      O      0.729290000000     0.754430000000     0.559580000000    -0.51792    
O56      O      0.816530000000     0.739050000000     0.521770000000    -0.518866   
O57      O      0.560850000000     0.646400000000     0.192400000000    -0.495558   
O58      O      0.592270000000     0.651040000000     0.144690000000    -0.497283   
O59      O      0.695940000000     0.719360000000     0.209850000000    -0.492309   
O60      O      0.696510000000     0.700270000000     0.143030000000    -0.49173    
O61      O      0.560720000000     0.702580000000     0.159930000000    -0.495233   
O62      O      0.650130000000     0.720450000000     0.133140000000    -0.500003   
O63      O      0.650150000000     0.675130000000     0.219660000000    -0.499975   
O64      O      0.591390000000     0.714070000000     0.207820000000    -0.497244   
O65      O      0.261600000000     0.840670000000     0.521540000000    -0.52036    
O66      O      0.241620000000     0.797160000000     0.522040000000    -0.494518   
O67      O      0.345700000000     0.863170000000     0.468620000000    -0.493637   
O68      O      0.371790000000     0.869420000000     0.544430000000    -0.493488   
O69      O      0.352100000000     0.797550000000     0.504130000000    -0.492407   
O70      O      0.350170000000     0.827780000000     0.561230000000    -0.517319   
O71      O      0.301610000000     0.818450000000     0.458860000000    -0.520604   
O72      O      0.414410000000     0.841280000000     0.498370000000    -0.515647   
O73      O      0.483710000000     0.933950000000     0.196840000000    -0.496117   
O74      O      0.473870000000     0.931300000000     0.145790000000    -0.495134   
O75      O      0.391520000000     0.901470000000     0.217220000000    -0.49665    
O76      O      0.393240000000     0.859240000000     0.133770000000    -0.496935   
O77      O      0.474460000000     0.872550000000     0.205740000000    -0.494889   
O78      O      0.362400000000     0.887270000000     0.141390000000    -0.49553    
O79      O      0.362930000000     0.857690000000     0.209560000000    -0.495545   
O80      O      0.485700000000     0.875550000000     0.154790000000    -0.496089   
O81      O      0.416580000000     0.931270000000     0.854540000000    -0.515699   
O82      O      0.354350000000     0.942670000000     0.848390000000    -0.492563   
O83      O      0.372370000000     0.879190000000     0.808180000000    -0.493185   
O84      O      0.346360000000     0.872760000000     0.882610000000    -0.493773   
O85      O      0.247080000000     0.889330000000     0.827660000000    -0.49443    
O86      O      0.301560000000     0.894170000000     0.892410000000    -0.520939   
O87      O      0.359240000000     0.912490000000     0.791070000000    -0.516522   
O88      O      0.261170000000     0.854180000000     0.828060000000    -0.520584   
O89      O      0.663130000000     0.663040000000     0.858990000000    -0.516324   
O90      O      0.726130000000     0.652120000000     0.853650000000    -0.491869   
O91      O      0.719120000000     0.679800000000     0.795290000000    -0.516745   
O92      O      0.728140000000     0.721230000000     0.884520000000    -0.494319   
O93      O      0.832070000000     0.705110000000     0.832030000000    -0.494977   
O94      O      0.779410000000     0.703750000000     0.895860000000    -0.520801   
O95      O      0.707040000000     0.714110000000     0.809640000000    -0.492613   
O96      O      0.817210000000     0.739990000000     0.830140000000    -0.519217   


