data_structure

_audit_creation_method RASPA-1.0
_audit_creation_date 2023-5-23
_audit_author_name 'Poobodin Mano'

_cell_length_a    25.9606
_cell_length_b    33.654
_cell_length_c    66.9545
_cell_angle_alpha 89.8667
_cell_angle_beta  90.3099
_cell_angle_gamma 90.1652
_cell_volume      58495.4

_symmetry_cell_setting          triclinic
_symmetry_space_group_name_Hall 'P 1'
_symmetry_space_group_name_H-M  'P 1'
_symmetry_Int_Tables_number     1

_symmetry_equiv_pos_as_xyz 'x,y,z'

loop_
_atom_site_label
_atom_site_type_symbol
_atom_site_fract_x
_atom_site_fract_y
_atom_site_fract_z
_atom_site_charge
C1       C      0.221660000000     0.247110000000     0.860770000000     0.405114   
C2       C      0.138930000000     0.331800000000     0.328480000000     0.403789   
C3       C      0.133830000000     0.311730000000     0.900330000000     0.404359   
C4       C      0.229850000000     0.389150000000     0.869350000000     0.405613   
C5       C      0.221470000000     0.247510000000     0.111890000000     0.405234   
C6       C      0.138430000000     0.332120000000     0.079250000000     0.404066   
C7       C      0.134260000000     0.312350000000     0.151360000000     0.404529   
C8       C      0.230000000000     0.389550000000     0.120240000000     0.405381   
C9       C      0.918650000000     0.520530000000     0.941330000000     0.406214   
C10      C      0.010780000000     0.419930000000     0.954530000000     0.40456    
C11      C      0.941770000000     0.412180000000     0.896760000000     0.403407   
C12      C      0.036260000000     0.515360000000     0.902510000000     0.407217   
C13      C      0.921740000000     0.521060000000     0.190280000000     0.406554   
C14      C      0.013170000000     0.420640000000     0.203580000000     0.404544   
C15      C      0.943120000000     0.412170000000     0.146010000000     0.403545   
C16      C      0.038380000000     0.515290000000     0.151090000000     0.407051   
C17      C      0.012030000000     0.117300000000     0.065350000000     0.407329   
C18      C      0.920280000000     0.217640000000     0.078540000000     0.403922   
C19      C      0.989080000000     0.225950000000     0.020850000000     0.402943   
C20      C      0.893900000000     0.122750000000     0.026420000000     0.407676   
C21      C      0.012740000000     0.117820000000     0.316660000000     0.406963   
C22      C      0.920350000000     0.217990000000     0.329440000000     0.404455   
C23      C      0.990530000000     0.226510000000     0.272080000000     0.402109   
C24      C      0.895950000000     0.123140000000     0.277160000000     0.406601   
C25      C      0.709160000000     0.390310000000     0.985990000000     0.403947   
C26      C      0.792080000000     0.306060000000     0.953530000000     0.403761   
C27      C      0.797100000000     0.325230000000     0.025570000000     0.403322   
C28      C      0.700980000000     0.248210000000     0.994190000000     0.405104   
C29      C      0.713230000000     0.389580000000     0.235700000000     0.405049   
C30      C      0.795950000000     0.305270000000     0.203140000000     0.403659   
C31      C      0.800610000000     0.324770000000     0.275390000000     0.404462   
C32      C      0.705090000000     0.247520000000     0.243920000000     0.405178   
C33      C      0.536320000000     0.623100000000     0.945910000000     0.406441   
C34      C      0.442330000000     0.726500000000     0.951060000000     0.40317    
C35      C      0.512240000000     0.718280000000     0.893640000000     0.404266   
C36      C      0.419450000000     0.618150000000     0.906380000000     0.406636   
C37      C      0.421120000000     0.617310000000     0.158200000000     0.406802   
C38      C      0.512970000000     0.717720000000     0.144920000000     0.403966   
C39      C      0.444150000000     0.725990000000     0.202580000000     0.403468   
C40      C      0.539060000000     0.622840000000     0.197190000000     0.406197   
C41      C      0.719630000000     0.889560000000     0.987280000000     0.403498   
C42      C      0.637280000000     0.804550000000     0.019870000000     0.402752   
C43      C      0.631800000000     0.824610000000     0.947700000000     0.404548   
C44      C      0.727990000000     0.747570000000     0.978930000000     0.404459   
C45      C      0.723500000000     0.890080000000     0.236780000000     0.405229   
C46      C      0.640840000000     0.805150000000     0.269240000000     0.403793   
C47      C      0.635420000000     0.824920000000     0.197260000000     0.404707   
C48      C      0.732040000000     0.748070000000     0.228430000000     0.405391   
C49      C      0.510410000000     0.020770000000     0.032420000000     0.408045   
C50      C      0.418350000000     0.920660000000     0.019390000000     0.403898   
C51      C      0.488460000000     0.911960000000     0.076940000000     0.403245   
C52      C      0.394010000000     0.015400000000     0.071720000000     0.406868   
C53      C      0.395300000000     0.015760000000     0.320420000000     0.406763   
C54      C      0.489040000000     0.912130000000     0.326530000000     0.403331   
C55      C      0.420450000000     0.920090000000     0.268660000000     0.404287   
C56      C      0.513060000000     0.020360000000     0.281740000000     0.406738   
C57      C      0.202160000000     0.889070000000     0.853280000000     0.405552   
C58      C      0.298870000000     0.812680000000     0.322520000000     0.404472   
C59      C      0.293030000000     0.832220000000     0.894450000000     0.403787   
C60      C      0.210930000000     0.747060000000     0.861730000000     0.405187   
C61      C      0.203420000000     0.889610000000     0.102560000000     0.405338   
C62      C      0.299500000000     0.813030000000     0.071540000000     0.404691   
C63      C      0.294760000000     0.832480000000     0.143680000000     0.40375    
C64      C      0.212260000000     0.747640000000     0.110920000000     0.405324   
C65      C      0.368860000000     0.840800000000     0.167350000000    -0.0199716  
C66      C      0.348980000000     0.893340000000     0.247850000000    -0.0208144  
C67      C      0.437100000000     0.886490000000     0.236280000000    -0.0205239  
C68      C      0.400200000000     0.872480000000     0.220810000000     0.0143963  
C69      C      0.350000000000     0.876070000000     0.227530000000     0.0152898  
C70      C      0.307850000000     0.867200000000     0.215220000000    -0.0663062  
C71      C      0.281190000000     0.845910000000     0.179630000000    -0.0200511  
C72      C      0.410920000000     0.860340000000     0.201240000000    -0.0635181  
C73      C      0.318580000000     0.854720000000     0.195760000000     0.0131716  
C74      C      0.368670000000     0.851600000000     0.188860000000     0.0122833  
C75      C      0.279280000000     0.846000000000     0.930360000000    -0.0203362  
C76      C      0.434950000000     0.887550000000     0.986900000000    -0.0273919  
C77      C      0.346820000000     0.894200000000     0.998510000000    -0.0404505  
C78      C      0.347880000000     0.876980000000     0.978180000000     0.0187486  
C79      C      0.398090000000     0.873520000000     0.971450000000     0.0137581  
C80      C      0.408890000000     0.861240000000     0.951920000000    -0.0634126  
C81      C      0.367000000000     0.841070000000     0.918110000000    -0.0197557  
C82      C      0.305770000000     0.867850000000     0.965890000000    -0.0691487  
C83      C      0.366700000000     0.852250000000     0.939570000000     0.0118664  
C84      C      0.316590000000     0.855240000000     0.946460000000     0.0136955  
C85      C      0.558100000000     0.826340000000     0.174750000000    -0.0179791  
C86      C      0.563320000000     0.882330000000     0.094400000000    -0.0219581  
C87      C      0.477490000000     0.869760000000     0.107300000000    -0.0216468  
C88      C      0.517360000000     0.856910000000     0.121950000000     0.0142834  
C89      C      0.566230000000     0.863920000000     0.114440000000     0.0162644  
C90      C      0.610450000000     0.857980000000     0.126050000000    -0.0661063  
C91      C      0.643280000000     0.838490000000     0.161080000000    -0.0200438  
C92      C      0.510220000000     0.843530000000     0.141620000000    -0.0630298  
C93      C      0.603290000000     0.844490000000     0.145600000000     0.0136631  
C94      C      0.554600000000     0.837420000000     0.153260000000     0.0122422  
C95      C      0.640620000000     0.838050000000     0.911560000000    -0.020004   
C96      C      0.476760000000     0.870180000000     0.857030000000    -0.0218249  
C97      C      0.563100000000     0.882150000000     0.844500000000    -0.0219345  
C98      C      0.565190000000     0.863880000000     0.864590000000     0.0161447  
C99      C      0.516040000000     0.857200000000     0.871890000000     0.014398   
C100     C      0.508170000000     0.843890000000     0.891540000000    -0.0631406  
C101     C      0.554970000000     0.826480000000     0.924900000000    -0.0180754  
C102     C      0.609000000000     0.857690000000     0.876400000000    -0.0661106  
C103     C      0.552160000000     0.837530000000     0.903380000000     0.0122967  
C104     C      0.601130000000     0.844280000000     0.895920000000     0.013615   
C105     C      0.290680000000     0.799820000000     0.286280000000    -0.0200418  
C106     C      0.455770000000     0.767520000000     0.233090000000    -0.0217039  
C107     C      0.369720000000     0.755760000000     0.219900000000    -0.0219013  
C108     C      0.367170000000     0.774070000000     0.239920000000     0.0162049  
C109     C      0.416160000000     0.780630000000     0.247600000000     0.0142198  
C110     C      0.423570000000     0.793820000000     0.267290000000    -0.0630529  
C111     C      0.376070000000     0.811030000000     0.300270000000    -0.0183082  
C112     C      0.323080000000     0.780330000000     0.251370000000    -0.0661668  
C113     C      0.379330000000     0.800230000000     0.278770000000     0.0122717  
C114     C      0.330510000000     0.793650000000     0.270940000000     0.0136685  
C115     C      0.584240000000     0.744020000000     0.124110000000    -0.0208413  
C116     C      0.563430000000     0.796200000000     0.043360000000    -0.0201891  
C117     C      0.651240000000     0.791140000000     0.055880000000    -0.020336   
C118     C      0.614040000000     0.782370000000     0.071950000000     0.0136252  
C119     C      0.563870000000     0.785430000000     0.064910000000     0.0128383  
C120     C      0.521770000000     0.776670000000     0.077200000000    -0.0634242  
C121     C      0.495990000000     0.750730000000     0.112270000000    -0.0206508  
C122     C      0.625000000000     0.769950000000     0.091470000000    -0.0660387  
C123     C      0.532720000000     0.764560000000     0.096830000000     0.014701   
C124     C      0.582990000000     0.761060000000     0.103700000000     0.0155705  
C125     C      0.454290000000     0.768270000000     0.981470000000    -0.0194458  
C126     C      0.290470000000     0.799510000000     0.035400000000    -0.0166827  
C127     C      0.376120000000     0.811590000000     0.048960000000    -0.0178395  
C128     C      0.378870000000     0.800490000000     0.027490000000     0.0137298  
C129     C      0.329910000000     0.793440000000     0.019900000000     0.00697517 
C130     C      0.322040000000     0.779890000000     0.000400000000    -0.0385162  
C131     C      0.368000000000     0.755560000000     0.968730000000    -0.0160383  
C132     C      0.422840000000     0.794320000000     0.015810000000    -0.0532181  
C133     C      0.365840000000     0.773860000000     0.988760000000     0.000995144
C134     C      0.414970000000     0.780900000000     0.996190000000     0.00755597 
C135     C      0.496480000000     0.751510000000     0.860960000000    -0.0204756  
C136     C      0.653800000000     0.791670000000     0.305320000000    -0.0200355  
C137     C      0.566390000000     0.797040000000     0.292410000000    -0.0198862  
C138     C      0.566110000000     0.786290000000     0.313940000000     0.0122227  
C139     C      0.616040000000     0.783050000000     0.321210000000     0.0132004  
C140     C      0.626290000000     0.770540000000     0.340780000000    -0.0662711  
C141     C      0.584300000000     0.744550000000     0.873230000000    -0.0207143  
C142     C      0.523560000000     0.777650000000     0.326020000000    -0.0635762  
C143     C      0.583810000000     0.761710000000     0.852850000000     0.0152691  
C144     C      0.533780000000     0.765380000000     0.845730000000     0.0144828  
C145     C      0.717190000000     0.459640000000     0.223710000000    -0.0207502  
C146     C      0.545840000000     0.565270000000     0.220300000000    -0.0206124  
C147     C      0.622710000000     0.588520000000     0.203280000000    -0.019699   
C148     C      0.632860000000     0.550300000000     0.213700000000     0.0124264  
C149     C      0.588830000000     0.536940000000     0.223270000000     0.0148642  
C150     C      0.586960000000     0.499610000000     0.232550000000    -0.0652447  
C151     C      0.638910000000     0.435450000000     0.239440000000    -0.0205995  
C152     C      0.677790000000     0.527270000000     0.213220000000    -0.0638925  
C153     C      0.631900000000     0.476710000000     0.232120000000     0.014679   
C154     C      0.676300000000     0.490350000000     0.222920000000     0.01378    
C155     C      0.625340000000     0.206500000000     0.241420000000    -0.0205003  
C156     C      0.597890000000     0.053850000000     0.277110000000    -0.0196627  
C157     C      0.521760000000     0.081350000000     0.260990000000    -0.0202868  
C158     C      0.566750000000     0.107950000000     0.258110000000     0.0146508  
C159     C      0.610270000000     0.092160000000     0.267190000000     0.0126388  
C160     C      0.657290000000     0.112720000000     0.267310000000    -0.0644477  
C161     C      0.702460000000     0.177780000000     0.256230000000    -0.0208286  
C162     C      0.567620000000     0.145410000000     0.248940000000    -0.065144   
C163     C      0.658500000000     0.149720000000     0.257700000000     0.01381    
C164     C      0.614710000000     0.165850000000     0.248980000000     0.0146028  
C165     C      0.542310000000     0.565800000000     0.969250000000    -0.0206495  
C166     C      0.713450000000     0.460170000000     0.973800000000    -0.0205318  
C167     C      0.634900000000     0.436360000000     0.989480000000    -0.0330936  
C168     C      0.628040000000     0.477460000000     0.981910000000     0.0172901  
C169     C      0.672620000000     0.490850000000     0.972740000000     0.0120494  
C170     C      0.674310000000     0.527500000000     0.962790000000    -0.0635667  
C171     C      0.619590000000     0.588550000000     0.952340000000    -0.019462   
C172     C      0.583090000000     0.500380000000     0.982030000000    -0.0676689  
C173     C      0.629410000000     0.550550000000     0.962990000000     0.0116417  
C174     C      0.585170000000     0.537470000000     0.972500000000     0.0148405  
C175     C      0.621240000000     0.207140000000     0.991850000000    -0.018853   
C176     C      0.595040000000     0.054240000000     0.027360000000    -0.0189286  
C177     C      0.518330000000     0.081870000000     0.011710000000    -0.0116404  
C178     C      0.563240000000     0.108440000000     0.008610000000     0.0237416  
C179     C      0.607080000000     0.092570000000     0.017420000000     0.0118403  
C180     C      0.654100000000     0.113120000000     0.017340000000    -0.0632384  
C181     C      0.698820000000     0.178310000000     0.006250000000    -0.00354068 
C182     C      0.563800000000     0.145980000000     0.999510000000    -0.0743325  
C183     C      0.654960000000     0.150200000000     0.007810000000     0.0201759  
C184     C      0.610890000000     0.166410000000     0.999350000000     0.006417   
C185     C      0.200320000000     0.959310000000     0.341650000000    -0.0206377  
C186     C      0.020590000000     0.056440000000     0.837370000000    -0.0197483  
C187     C      0.097180000000     0.084160000000     0.321560000000    -0.0195849  
C188     C      0.109100000000     0.045510000000     0.331190000000     0.0125713  
C189     C      0.065220000000     0.029530000000     0.840100000000     0.0148773  
C190     C      0.065570000000     0.991530000000     0.848710000000    -0.0655415  
C191     C      0.122480000000     0.929810000000     0.855560000000    -0.0205999  
C192     C      0.155890000000     0.024870000000     0.331090000000    -0.0639537  
C193     C      0.112370000000     0.970900000000     0.848550000000     0.0147861  
C194     C      0.156660000000     0.987490000000     0.340310000000     0.0134518  
C195     C      0.889910000000     0.066300000000     0.253670000000    -0.0204693  
C196     C      0.718990000000     0.959770000000     0.249000000000    -0.0206687  
C197     C      0.797570000000     0.936670000000     0.233270000000    -0.0204296  
C198     C      0.804310000000     0.977710000000     0.240880000000     0.0141634  
C199     C      0.759720000000     0.990700000000     0.250080000000     0.0135738  
C200     C      0.757970000000     0.027200000000     0.260080000000    -0.0637077  
C201     C      0.812650000000     0.088350000000     0.270660000000    -0.0196774  
C202     C      0.849220000000     0.000890000000     0.240780000000    -0.064472   
C203     C      0.802840000000     0.050500000000     0.259920000000     0.012457   
C204     C      0.847080000000     0.037810000000     0.250360000000     0.0145913  
C205     C      0.779060000000     0.292330000000     0.917510000000    -0.020123   
C206     C      0.936110000000     0.251750000000     0.862120000000    -0.0205004  
C207     C      0.848250000000     0.244490000000     0.849890000000    -0.0207963  
C208     C      0.848820000000     0.261810000000     0.870200000000     0.0153296  
C209     C      0.898870000000     0.265640000000     0.877290000000     0.014291   
C210     C      0.909180000000     0.278040000000     0.896900000000    -0.0635078  
C211     C      0.866500000000     0.297880000000     0.930400000000    -0.01981    
C212     C      0.806410000000     0.270660000000     0.882180000000    -0.066288   
C213     C      0.866700000000     0.286750000000     0.908930000000     0.012157   
C214     C      0.816750000000     0.283390000000     0.901680000000     0.0131219  
C215     C      0.123540000000     0.930150000000     0.104760000000    -0.0206347  
C216     C      0.096650000000     0.083760000000     0.070070000000    -0.019697   
C217     C      0.020390000000     0.055660000000     0.085660000000    -0.01974    
C218     C      0.065250000000     0.029020000000     0.088490000000     0.0151455  
C219     C      0.108840000000     0.045150000000     0.079710000000     0.0128455  
C220     C      0.155780000000     0.024700000000     0.079630000000    -0.0639324  
C221     C      0.200740000000     0.959490000000     0.090470000000    -0.0207789  
C222     C      0.065980000000     0.991290000000     0.097390000000    -0.065304   
C223     C      0.156840000000     0.987430000000     0.088980000000     0.0136814  
C224     C      0.113000000000     0.970950000000     0.097390000000     0.0150283  
C225     C      0.810200000000     0.088180000000     0.020300000000    -0.0208276  
C226     C      0.793790000000     0.935940000000     0.983540000000    -0.016584   
C227     C      0.715590000000     0.959380000000     0.999420000000    -0.0472263  
C228     C      0.756450000000     0.990280000000     0.000280000000     0.0400772  
C229     C      0.800800000000     0.977070000000     0.990990000000    -0.00112158 
C230     C      0.845760000000     0.000160000000     0.990640000000    -0.0696588  
C231     C      0.886970000000     0.065660000000     0.003130000000    -0.0107406  
C232     C      0.755030000000     0.026950000000     0.010140000000    -0.0720624  
C233     C      0.843960000000     0.037230000000     0.000090000000     0.0206311  
C234     C      0.799980000000     0.050170000000     0.009740000000     0.0161739  
C235     C      0.849070000000     0.244030000000     0.099190000000    -0.0209591  
C236     C      0.869870000000     0.297000000000     0.179710000000    -0.0199653  
C237     C      0.782080000000     0.291730000000     0.167170000000    -0.020092   
C238     C      0.819290000000     0.282790000000     0.151170000000     0.0131593  
C239     C      0.869450000000     0.286000000000     0.158210000000     0.0123855  
C240     C      0.911540000000     0.277210000000     0.145980000000    -0.0634654  
C241     C      0.937320000000     0.251040000000     0.111030000000    -0.0206031  
C242     C      0.808330000000     0.270170000000     0.131700000000    -0.0661853  
C243     C      0.900590000000     0.264910000000     0.126400000000     0.0143535  
C244     C      0.850330000000     0.261240000000     0.119530000000     0.0154985  
C245     C      0.811890000000     0.707360000000     0.230550000000    -0.020433   
C246     C      0.837380000000     0.554640000000     0.195180000000    -0.0197887  
C247     C      0.914300000000     0.582370000000     0.210720000000    -0.0202289  
C248     C      0.869560000000     0.608930000000     0.213760000000     0.0144958  
C249     C      0.825600000000     0.593000000000     0.205010000000     0.0127825  
C250     C      0.778660000000     0.613440000000     0.205120000000    -0.0645595  
C251     C      0.734150000000     0.678370000000     0.216260000000    -0.0209121  
C252     C      0.869170000000     0.646420000000     0.222830000000    -0.0650566  
C253     C      0.777980000000     0.650470000000     0.214610000000     0.0139435  
C254     C      0.822140000000     0.666740000000     0.223010000000     0.0144631  
C255     C      0.044770000000     0.572110000000     0.127510000000    -0.0208011  
C256     C      0.216580000000     0.677770000000     0.123140000000    -0.0207355  
C257     C      0.137990000000     0.701310000000     0.107200000000    -0.0207951  
C258     C      0.131040000000     0.660240000000     0.114810000000     0.0152691  
C259     C      0.175630000000     0.646980000000     0.124130000000     0.0138112  
C260     C      0.177180000000     0.610420000000     0.134180000000    -0.0636397  
C261     C      0.122010000000     0.549550000000     0.144720000000    -0.0195298  
C262     C      0.085940000000     0.637310000000     0.114620000000    -0.0652348  
C263     C      0.132090000000     0.587370000000     0.133940000000     0.0123903  
C264     C      0.087850000000     0.600340000000     0.124260000000     0.0154267  
C265     C      0.868290000000     0.382540000000     0.128440000000    -0.0219336  
C266     C      0.874190000000     0.326820000000     0.048190000000    -0.0182657  
C267     C      0.788880000000     0.338370000000     0.061750000000    -0.0202884  
C268     C      0.828730000000     0.344480000000     0.077280000000     0.0140498  
C269     C      0.877490000000     0.337700000000     0.069680000000     0.0124897  
C270     C      0.921780000000     0.343990000000     0.081360000000    -0.0628777  
C271     C      0.954210000000     0.370250000000     0.115680000000    -0.021593   
C272     C      0.821410000000     0.357940000000     0.096790000000    -0.0660569  
C273     C      0.914460000000     0.357310000000     0.101000000000     0.0143824  
C274     C      0.865540000000     0.364120000000     0.108430000000     0.0164287  
C275     C      0.730430000000     0.677980000000     0.966570000000    -0.0209878  
C276     C      0.910610000000     0.581770000000     0.961790000000    -0.020064   
C277     C      0.834140000000     0.554150000000     0.945880000000    -0.0197989  
C278     C      0.822130000000     0.592550000000     0.955630000000     0.0126438  
C279     C      0.865830000000     0.608400000000     0.964610000000     0.0137114  
C280     C      0.865230000000     0.645880000000     0.973690000000    -0.0651693  
C281     C      0.807800000000     0.706850000000     0.981220000000    -0.0202486  
C282     C      0.775230000000     0.613060000000     0.955520000000    -0.0649094  
C283     C      0.818240000000     0.666260000000     0.973660000000     0.01359    
C284     C      0.774300000000     0.650060000000     0.965050000000     0.0137455  
C285     C      0.043190000000     0.571810000000     0.878710000000    -0.020649   
C286     C      0.214940000000     0.677550000000     0.874440000000    -0.020626   
C287     C      0.136880000000     0.700520000000     0.857910000000    -0.0206418  
C288     C      0.129710000000     0.659700000000     0.865810000000     0.014734   
C289     C      0.173980000000     0.646780000000     0.875470000000     0.0135923  
C290     C      0.175230000000     0.610550000000     0.885820000000    -0.0638624  
C291     C      0.119920000000     0.549820000000     0.896460000000    -0.0195349  
C292     C      0.084650000000     0.636700000000     0.865570000000    -0.0652868  
C293     C      0.130230000000     0.587400000000     0.885500000000     0.0121897  
C294     C      0.086300000000     0.600020000000     0.875490000000     0.0149887  
C295     C      0.877040000000     0.326790000000     0.298390000000    -0.0182185  
C296     C      0.867730000000     0.382650000000     0.878630000000    -0.0219252  
C297     C      0.954210000000     0.370690000000     0.866360000000    -0.0216349  
C298     C      0.915110000000     0.357650000000     0.851440000000     0.0144236  
C299     C      0.865870000000     0.364280000000     0.858600000000     0.0162431  
C300     C      0.822220000000     0.357920000000     0.846710000000    -0.0660969  
C301     C      0.791190000000     0.338070000000     0.311480000000    -0.0198982  
C302     C      0.923310000000     0.344260000000     0.331840000000    -0.0631683  
C303     C      0.830420000000     0.344420000000     0.327210000000     0.0135258  
C304     C      0.879510000000     0.337790000000     0.319900000000     0.0123582  
C305     C      0.336480000000     0.583540000000     0.153310000000    -0.0195521  
C306     C      0.309790000000     0.430580000000     0.118110000000    -0.0206     
C307     C      0.232440000000     0.459330000000     0.132340000000    -0.0209061  
C308     C      0.276320000000     0.487450000000     0.133950000000     0.0139253  
C309     C      0.320250000000     0.471290000000     0.125570000000     0.0149555  
C310     C      0.367300000000     0.491790000000     0.125730000000    -0.0650725  
C311     C      0.412870000000     0.556020000000     0.137760000000    -0.0205403  
C312     C      0.277320000000     0.524530000000     0.143410000000    -0.0644383  
C313     C      0.367990000000     0.529310000000     0.134760000000     0.0150363  
C314     C      0.324320000000     0.545120000000     0.143500000000     0.0126195  
C315     C      0.216980000000     0.177770000000     0.099650000000    -0.0207832  
C316     C      0.388370000000     0.072510000000     0.095030000000    -0.0206025  
C317     C      0.310760000000     0.049810000000     0.078060000000    -0.0197647  
C318     C      0.301050000000     0.087650000000     0.088750000000     0.0127131  
C319     C      0.345490000000     0.100710000000     0.098300000000     0.0149897  
C320     C      0.347700000000     0.137680000000     0.107850000000    -0.0650675  
C321     C      0.295890000000     0.201490000000     0.115360000000    -0.0206675  
C322     C      0.256050000000     0.110620000000     0.088570000000    -0.0637973  
C323     C      0.302680000000     0.160520000000     0.107720000000     0.0148367  
C324     C      0.257900000000     0.147170000000     0.098540000000     0.013992   
C325     C      0.065140000000     0.255560000000     0.254380000000    -0.0218694  
C326     C      0.057650000000     0.311010000000     0.173930000000    -0.0182857  
C327     C      0.143200000000     0.299040000000     0.187560000000    -0.019934   
C328     C      0.103690000000     0.293190000000     0.203100000000     0.0134651  
C329     C      0.054800000000     0.300190000000     0.195460000000     0.0123828  
C330     C      0.010760000000     0.294140000000     0.207150000000    -0.0626537  
C331     C      0.978990000000     0.268220000000     0.241550000000    -0.0226958  
C332     C      0.111400000000     0.279760000000     0.222660000000    -0.0659466  
C333     C      0.018470000000     0.280850000000     0.226830000000     0.0150691  
C334     C      0.067520000000     0.273840000000     0.234300000000     0.0160136  
C335     C      0.063950000000     0.340260000000     0.055770000000    -0.0232686  
C336     C      0.082480000000     0.393040000000     0.975120000000    -0.0103383  
C337     C      0.994560000000     0.385950000000     0.986960000000    -0.0384088  
C338     C      0.031710000000     0.371990000000     0.002340000000     0.0466282  
C339     C      0.081790000000     0.375750000000     0.995470000000    -0.0170693  
C340     C      0.124150000000     0.367040000000     0.007700000000    -0.0423215  
C341     C      0.151410000000     0.345790000000     0.043260000000    -0.0160534  
C342     C      0.021330000000     0.359760000000     0.021960000000    -0.0759159  
C343     C      0.113750000000     0.354500000000     0.027210000000     0.00353744 
C344     C      0.063780000000     0.351150000000     0.034240000000     0.0219911  
C345     C      0.411500000000     0.556810000000     0.885960000000    -0.0204166  
C346     C      0.231920000000     0.459070000000     0.881270000000    -0.0207641  
C347     C      0.309400000000     0.430430000000     0.867090000000    -0.0204663  
C348     C      0.319550000000     0.471360000000     0.874300000000     0.0145496  
C349     C      0.275540000000     0.487460000000     0.882640000000     0.0137545  
C350     C      0.276260000000     0.524770000000     0.891860000000    -0.064409   
C351     C      0.334900000000     0.584340000000     0.901350000000    -0.0195568  
C352     C      0.366420000000     0.492110000000     0.874300000000    -0.0652037  
C353     C      0.323040000000     0.545640000000     0.891770000000     0.012479   
C354     C      0.366810000000     0.529860000000     0.883090000000     0.0146824  
C355     C      0.388650000000     0.072010000000     0.844150000000    -0.0205557  
C356     C      0.217170000000     0.177450000000     0.348550000000    -0.0206808  
C357     C      0.295890000000     0.200930000000     0.864380000000    -0.0206206  
C358     C      0.302810000000     0.160070000000     0.856630000000     0.0145295  
C359     C      0.258140000000     0.146900000000     0.347420000000     0.0137163  
C360     C      0.256770000000     0.110760000000     0.337070000000    -0.0639392  
C361     C      0.311960000000     0.050400000000     0.326300000000    -0.0196133  
C362     C      0.347710000000     0.137080000000     0.856970000000    -0.065221   
C363     C      0.301780000000     0.087810000000     0.337300000000     0.012419   
C364     C      0.345770000000     0.100300000000     0.847230000000     0.0146955  
C365     C      0.977470000000     0.267220000000     0.990180000000    -0.0312796  
C366     C      0.142280000000     0.299030000000     0.936610000000    -0.0188512  
C367     C      0.056830000000     0.310010000000     0.922680000000    -0.0193697  
C368     C      0.053720000000     0.299590000000     0.944260000000     0.0142617  
C369     C      0.102560000000     0.293120000000     0.952060000000     0.0106495  
C370     C      0.110080000000     0.279980000000     0.971680000000    -0.0617313  
C371     C      0.063560000000     0.255630000000     0.003310000000    -0.0104071  
C372     C      0.009530000000     0.293270000000     0.955830000000    -0.0656806  
C373     C      0.066050000000     0.273790000000     0.983210000000     0.00281375 
C374     C      0.017040000000     0.280260000000     0.975570000000     0.019369   
C375     C      0.084680000000     0.394120000000     0.224400000000    -0.0207692  
C376     C      0.064830000000     0.340560000000     0.304890000000    -0.0198675  
C377     C      0.152490000000     0.345850000000     0.292560000000    -0.0199169  
C378     C      0.115110000000     0.355090000000     0.276490000000     0.0129866  
C379     C      0.065030000000     0.351890000000     0.283420000000     0.0124614  
C380     C      0.022800000000     0.360830000000     0.271100000000    -0.0629969  
C381     C      0.996590000000     0.387220000000     0.236090000000    -0.021455   
C382     C      0.125840000000     0.367820000000     0.257030000000    -0.0660151  
C383     C      0.033510000000     0.373270000000     0.251550000000     0.0149698  
C384     C      0.083690000000     0.376890000000     0.244770000000     0.0152754  
C385     C      0.221290000000     0.246890000000     0.361220000000     0.405132   
C386     C      0.138900000000     0.332050000000     0.828300000000     0.403366   
C387     C      0.133610000000     0.312010000000     0.400550000000     0.404399   
C388     C      0.229820000000     0.389050000000     0.369470000000     0.405561   
C389     C      0.221200000000     0.247490000000     0.611910000000     0.405132   
C390     C      0.138210000000     0.332250000000     0.579330000000     0.403872   
C391     C      0.133990000000     0.312200000000     0.651430000000     0.404408   
C392     C      0.229780000000     0.389490000000     0.620350000000     0.405132   
C393     C      0.918600000000     0.520580000000     0.441270000000     0.406382   
C394     C      0.010750000000     0.420130000000     0.454550000000     0.404787   
C395     C      0.941770000000     0.412140000000     0.396740000000     0.403613   
C396     C      0.036180000000     0.515390000000     0.402440000000     0.407079   
C397     C      0.921390000000     0.520970000000     0.690150000000     0.406722   
C398     C      0.012790000000     0.420510000000     0.703390000000     0.404959   
C399     C      0.942750000000     0.412130000000     0.645830000000     0.403327   
C400     C      0.038030000000     0.515250000000     0.650970000000     0.40688    
C401     C      0.011820000000     0.117290000000     0.565390000000     0.407396   
C402     C      0.919970000000     0.217580000000     0.578620000000     0.404083   
C403     C      0.988740000000     0.226070000000     0.520970000000     0.402471   
C404     C      0.893680000000     0.122760000000     0.526460000000     0.40627    
C405     C      0.012710000000     0.118110000000     0.817070000000     0.407364   
C406     C      0.920210000000     0.218180000000     0.829600000000     0.40423    
C407     C      0.990410000000     0.226410000000     0.772220000000     0.402186   
C408     C      0.896010000000     0.122990000000     0.777430000000     0.40636    
C409     C      0.709070000000     0.390170000000     0.485780000000     0.405217   
C410     C      0.792080000000     0.305940000000     0.453340000000     0.403715   
C411     C      0.796940000000     0.325070000000     0.525380000000     0.40451    
C412     C      0.700910000000     0.248060000000     0.493980000000     0.405372   
C413     C      0.713010000000     0.389570000000     0.735750000000     0.405139   
C414     C      0.795660000000     0.305250000000     0.703210000000     0.40372    
C415     C      0.800440000000     0.324770000000     0.775440000000     0.404607   
C416     C      0.704850000000     0.247500000000     0.744010000000     0.405335   
C417     C      0.536290000000     0.623070000000     0.445820000000     0.406339   
C418     C      0.442250000000     0.726390000000     0.451020000000     0.403233   
C419     C      0.512220000000     0.718360000000     0.393580000000     0.404183   
C420     C      0.419460000000     0.618170000000     0.406270000000     0.40634    
C421     C      0.421000000000     0.617320000000     0.658150000000     0.40674    
C422     C      0.512930000000     0.717710000000     0.644850000000     0.4039     
C423     C      0.444140000000     0.726010000000     0.702490000000     0.403558   
C424     C      0.538960000000     0.622810000000     0.697120000000     0.406271   
C425     C      0.719520000000     0.889600000000     0.487220000000     0.405337   
C426     C      0.637220000000     0.804590000000     0.519810000000     0.403648   
C427     C      0.631740000000     0.824620000000     0.447640000000     0.404126   
C428     C      0.727910000000     0.747590000000     0.478880000000     0.405284   
C429     C      0.723520000000     0.890010000000     0.736870000000     0.40526    
C430     C      0.640800000000     0.805050000000     0.769280000000     0.403696   
C431     C      0.635400000000     0.824940000000     0.697310000000     0.404648   
C432     C      0.731940000000     0.748000000000     0.728440000000     0.405338   
C433     C      0.510300000000     0.020800000000     0.532470000000     0.406851   
C434     C      0.418350000000     0.920590000000     0.519480000000     0.404033   
C435     C      0.488420000000     0.912010000000     0.577010000000     0.403365   
C436     C      0.393860000000     0.015410000000     0.571760000000     0.406571   
C437     C      0.395080000000     0.015250000000     0.820650000000     0.406714   
C438     C      0.489020000000     0.911830000000     0.826540000000     0.403477   
C439     C      0.420370000000     0.920050000000     0.768690000000     0.404623   
C440     C      0.512830000000     0.020350000000     0.781920000000     0.406971   
C441     C      0.202470000000     0.889260000000     0.353500000000     0.405577   
C442     C      0.298860000000     0.812560000000     0.822440000000     0.404675   
C443     C      0.293140000000     0.832030000000     0.394560000000     0.403993   
C444     C      0.210910000000     0.747140000000     0.361760000000     0.405035   
C445     C      0.203300000000     0.889600000000     0.602530000000     0.405145   
C446     C      0.299380000000     0.812920000000     0.571530000000     0.404325   
C447     C      0.294670000000     0.832520000000     0.643670000000     0.403935   
C448     C      0.212080000000     0.747650000000     0.610940000000     0.405204   
C449     C      0.368780000000     0.840900000000     0.667330000000    -0.0199203  
C450     C      0.348900000000     0.893370000000     0.747850000000    -0.0208109  
C451     C      0.437020000000     0.886570000000     0.736270000000    -0.0205298  
C452     C      0.400130000000     0.872590000000     0.720790000000     0.0144233  
C453     C      0.349930000000     0.876150000000     0.727520000000     0.0153118  
C454     C      0.307780000000     0.867280000000     0.715200000000    -0.0662645  
C455     C      0.281120000000     0.845980000000     0.679620000000    -0.0200748  
C456     C      0.410850000000     0.860460000000     0.701220000000    -0.0634804  
C457     C      0.318510000000     0.854810000000     0.695740000000     0.0132503  
C458     C      0.368600000000     0.851710000000     0.688840000000     0.0122726  
C459     C      0.279380000000     0.845660000000     0.430480000000    -0.0200398  
C460     C      0.435000000000     0.887420000000     0.487010000000    -0.020578   
C461     C      0.346860000000     0.893990000000     0.498620000000    -0.0207598  
C462     C      0.347950000000     0.876740000000     0.478290000000     0.0153599  
C463     C      0.398160000000     0.873330000000     0.471560000000     0.0145088  
C464     C      0.408970000000     0.861050000000     0.452030000000    -0.0635414  
C465     C      0.367100000000     0.840850000000     0.418220000000    -0.0198293  
C466     C      0.305850000000     0.867550000000     0.466010000000    -0.0661128  
C467     C      0.366790000000     0.852010000000     0.439680000000     0.0123964  
C468     C      0.316680000000     0.854940000000     0.446580000000     0.0130771  
C469     C      0.558090000000     0.826360000000     0.674800000000    -0.0179597  
C470     C      0.563280000000     0.882370000000     0.594460000000    -0.0218707  
C471     C      0.477460000000     0.869800000000     0.607370000000    -0.0217278  
C472     C      0.517330000000     0.856930000000     0.622010000000     0.014397   
C473     C      0.566190000000     0.863940000000     0.614490000000     0.0161811  
C474     C      0.610420000000     0.858000000000     0.626100000000    -0.066023   
C475     C      0.643260000000     0.838510000000     0.661130000000    -0.0200102  
C476     C      0.510190000000     0.843540000000     0.641680000000    -0.0630962  
C477     C      0.603270000000     0.844500000000     0.645650000000     0.0135991  
C478     C      0.554580000000     0.837430000000     0.653310000000     0.0123211  
C479     C      0.640560000000     0.838030000000     0.411500000000    -0.0199793  
C480     C      0.476710000000     0.870480000000     0.357010000000    -0.0218002  
C481     C      0.563070000000     0.882350000000     0.344470000000    -0.0219366  
C482     C      0.565150000000     0.864020000000     0.364550000000     0.0161419  
C483     C      0.515980000000     0.857390000000     0.371850000000     0.0144387  
C484     C      0.508110000000     0.844060000000     0.391500000000    -0.063154   
C485     C      0.554900000000     0.826560000000     0.424850000000    -0.0180953  
C486     C      0.608950000000     0.857740000000     0.376350000000    -0.0660178  
C487     C      0.552090000000     0.837620000000     0.403330000000     0.0123951  
C488     C      0.601070000000     0.844320000000     0.395870000000     0.0136328  
C489     C      0.290690000000     0.799720000000     0.786200000000    -0.0200975  
C490     C      0.455790000000     0.767560000000     0.733000000000    -0.0216763  
C491     C      0.369730000000     0.755810000000     0.719810000000    -0.0219645  
C492     C      0.367180000000     0.774100000000     0.739830000000     0.0163194  
C493     C      0.416170000000     0.780660000000     0.747510000000     0.0142085  
C494     C      0.423590000000     0.793820000000     0.767210000000    -0.0629602  
C495     C      0.376080000000     0.810960000000     0.800190000000    -0.0182283  
C496     C      0.323100000000     0.780320000000     0.751280000000    -0.0661838  
C497     C      0.379340000000     0.800200000000     0.778690000000     0.0122764  
C498     C      0.330530000000     0.793610000000     0.770860000000     0.0137619  
C499     C      0.584200000000     0.744070000000     0.624050000000    -0.0208016  
C500     C      0.563380000000     0.796260000000     0.543310000000    -0.020019   
C501     C      0.651190000000     0.791210000000     0.555830000000    -0.0200116  
C502     C      0.613990000000     0.782460000000     0.571900000000     0.013107   
C503     C      0.563830000000     0.785510000000     0.564860000000     0.012448   
C504     C      0.521730000000     0.776740000000     0.577150000000    -0.0635666  
C505     C      0.495960000000     0.750770000000     0.612210000000    -0.0206155  
C506     C      0.624960000000     0.770030000000     0.591420000000    -0.066121   
C507     C      0.532680000000     0.764630000000     0.596780000000     0.0145202  
C508     C      0.582960000000     0.761130000000     0.603650000000     0.015344   
C509     C      0.454170000000     0.768090000000     0.481460000000    -0.0217325  
C510     C      0.290350000000     0.799250000000     0.535410000000    -0.0200055  
C511     C      0.376000000000     0.811410000000     0.548960000000    -0.0180387  
C512     C      0.378750000000     0.800260000000     0.527490000000     0.0124623  
C513     C      0.329790000000     0.793160000000     0.519910000000     0.0135424  
C514     C      0.321920000000     0.779580000000     0.500410000000    -0.0659443  
C515     C      0.367880000000     0.755290000000     0.468740000000    -0.0219335  
C516     C      0.422710000000     0.794120000000     0.515810000000    -0.0632347  
C517     C      0.365710000000     0.773570000000     0.488770000000     0.0161819  
C518     C      0.414840000000     0.780670000000     0.496190000000     0.0145121  
C519     C      0.496480000000     0.751650000000     0.360910000000    -0.0206055  
C520     C      0.653760000000     0.791540000000     0.805360000000    -0.0200404  
C521     C      0.566350000000     0.796910000000     0.792450000000    -0.0199044  
C522     C      0.566080000000     0.786150000000     0.813990000000     0.0123096  
C523     C      0.616010000000     0.782930000000     0.821250000000     0.0132317  
C524     C      0.626270000000     0.770440000000     0.840820000000    -0.0662193  
C525     C      0.584300000000     0.744630000000     0.373190000000    -0.0207347  
C526     C      0.523540000000     0.777510000000     0.826060000000    -0.063528   
C527     C      0.583830000000     0.761770000000     0.352800000000     0.0152099  
C528     C      0.533800000000     0.765470000000     0.345680000000     0.0144961  
C529     C      0.717010000000     0.459610000000     0.723740000000    -0.0206802  
C530     C      0.545700000000     0.565270000000     0.720260000000    -0.0207142  
C531     C      0.622580000000     0.588460000000     0.703230000000    -0.0196559  
C532     C      0.632710000000     0.550260000000     0.713670000000     0.0123787  
C533     C      0.588670000000     0.536930000000     0.723240000000     0.0149503  
C534     C      0.586780000000     0.499620000000     0.732540000000    -0.0652177  
C535     C      0.638710000000     0.435460000000     0.739470000000    -0.0205997  
C536     C      0.677640000000     0.527230000000     0.713210000000    -0.0638276  
C537     C      0.631720000000     0.476710000000     0.732130000000     0.0147276  
C538     C      0.676130000000     0.490320000000     0.722930000000     0.0137438  
C539     C      0.625050000000     0.206530000000     0.741580000000    -0.0205711  
C540     C      0.597640000000     0.053870000000     0.777270000000    -0.0196346  
C541     C      0.521430000000     0.081460000000     0.761240000000    -0.0203569  
C542     C      0.566440000000     0.108030000000     0.758330000000     0.0147434  
C543     C      0.610000000000     0.092190000000     0.767360000000     0.0126202  
C544     C      0.657060000000     0.112710000000     0.767430000000    -0.0644101  
C545     C      0.702230000000     0.177750000000     0.756320000000    -0.0208037  
C546     C      0.567300000000     0.145490000000     0.749160000000    -0.0651642  
C547     C      0.658240000000     0.149720000000     0.757830000000     0.0138145  
C548     C      0.614420000000     0.165890000000     0.749160000000     0.01469    
C549     C      0.542250000000     0.565710000000     0.469110000000    -0.0205918  
C550     C      0.713370000000     0.460040000000     0.473630000000    -0.0206611  
C551     C      0.634790000000     0.436200000000     0.489270000000    -0.0205744  
C552     C      0.627950000000     0.477330000000     0.481720000000     0.0146283  
C553     C      0.672540000000     0.490740000000     0.472570000000     0.0137755  
C554     C      0.674250000000     0.527410000000     0.462650000000    -0.0639512  
C555     C      0.619560000000     0.588500000000     0.452230000000    -0.0196578  
C556     C      0.583000000000     0.500250000000     0.481850000000    -0.0651707  
C557     C      0.629350000000     0.550470000000     0.462860000000     0.0124312  
C558     C      0.585100000000     0.537360000000     0.472360000000     0.0148219  
C559     C      0.621170000000     0.206980000000     0.491670000000    -0.0205146  
C560     C      0.594920000000     0.054280000000     0.527390000000    -0.0195482  
C561     C      0.518210000000     0.081830000000     0.511700000000    -0.0203478  
C562     C      0.563120000000     0.108390000000     0.508570000000     0.0146881  
C563     C      0.606960000000     0.092560000000     0.517400000000     0.0126718  
C564     C      0.653990000000     0.113090000000     0.517280000000    -0.0644545  
C565     C      0.698730000000     0.178200000000     0.506100000000    -0.020816   
C566     C      0.563700000000     0.145870000000     0.499420000000    -0.0650955  
C567     C      0.654870000000     0.150120000000     0.507700000000     0.0138734  
C568     C      0.610800000000     0.166290000000     0.499220000000     0.0145924  
C569     C      0.199980000000     0.959070000000     0.841400000000    -0.0203761  
C570     C      0.020500000000     0.056080000000     0.336920000000    -0.0196566  
C571     C      0.097190000000     0.084560000000     0.822040000000    -0.0195524  
C572     C      0.108990000000     0.045680000000     0.831460000000     0.0124923  
C573     C      0.065330000000     0.029430000000     0.339870000000     0.0147557  
C574     C      0.065780000000     0.991590000000     0.348650000000    -0.0654086  
C575     C      0.122880000000     0.930110000000     0.355830000000    -0.0205332  
C576     C      0.155680000000     0.024910000000     0.831200000000    -0.0639051  
C577     C      0.112680000000     0.971080000000     0.348650000000     0.014747   
C578     C      0.156370000000     0.987360000000     0.840250000000     0.0131085  
C579     C      0.890110000000     0.066040000000     0.754010000000    -0.0203754  
C580     C      0.719020000000     0.959710000000     0.749100000000    -0.0206165  
C581     C      0.797700000000     0.936530000000     0.733470000000    -0.020395   
C582     C      0.804460000000     0.977550000000     0.741100000000     0.0141959  
C583     C      0.759810000000     0.990600000000     0.750230000000     0.0135767  
C584     C      0.758030000000     0.027100000000     0.760230000000    -0.0636318  
C585     C      0.812720000000     0.088210000000     0.770870000000    -0.0196701  
C586     C      0.849410000000     0.000680000000     0.741060000000    -0.0644189  
C587     C      0.802950000000     0.050350000000     0.760130000000     0.0124671  
C588     C      0.847260000000     0.037600000000     0.750640000000     0.0146009  
C589     C      0.779130000000     0.292260000000     0.417310000000    -0.0200205  
C590     C      0.936250000000     0.251510000000     0.361980000000    -0.0205708  
C591     C      0.848410000000     0.244340000000     0.349720000000    -0.0207538  
C592     C      0.848960000000     0.261670000000     0.370030000000     0.0153287  
C593     C      0.899000000000     0.265450000000     0.377140000000     0.0144007  
C594     C      0.909290000000     0.277850000000     0.396750000000    -0.0635128  
C595     C      0.866550000000     0.297740000000     0.430230000000    -0.0198845  
C596     C      0.806540000000     0.270570000000     0.381990000000    -0.0661863  
C597     C      0.866780000000     0.286610000000     0.408760000000     0.0123462  
C598     C      0.816850000000     0.283290000000     0.401490000000     0.0131268  
C599     C      0.123420000000     0.930140000000     0.604750000000    -0.0206655  
C600     C      0.096450000000     0.083740000000     0.570060000000    -0.0195001  
C601     C      0.020240000000     0.055660000000     0.585700000000    -0.0197562  
C602     C      0.065100000000     0.029010000000     0.588510000000     0.0150252  
C603     C      0.108660000000     0.045140000000     0.579710000000     0.0124315  
C604     C      0.155600000000     0.024680000000     0.579610000000    -0.0639949  
C605     C      0.200590000000     0.959460000000     0.590420000000    -0.0207476  
C606     C      0.065860000000     0.991280000000     0.597410000000    -0.0655433  
C607     C      0.156690000000     0.987410000000     0.588950000000     0.0133792  
C608     C      0.112870000000     0.970930000000     0.597390000000     0.0148929  
C609     C      0.810000000000     0.088180000000     0.520310000000    -0.0196799  
C610     C      0.793670000000     0.936000000000     0.483490000000    -0.0204683  
C611     C      0.715450000000     0.959410000000     0.499370000000    -0.0206231  
C612     C      0.756300000000     0.990310000000     0.500250000000     0.0134937  
C613     C      0.800660000000     0.977120000000     0.490960000000     0.0142515  
C614     C      0.845610000000     0.000230000000     0.490620000000    -0.0645228  
C615     C      0.886790000000     0.065720000000     0.503140000000    -0.0205453  
C616     C      0.754860000000     0.026960000000     0.510130000000    -0.0635878  
C617     C      0.843790000000     0.037280000000     0.500080000000     0.0146949  
C618     C      0.799800000000     0.050190000000     0.509740000000     0.0123859  
C619     C      0.848750000000     0.244000000000     0.599260000000    -0.0208821  
C620     C      0.869570000000     0.297020000000     0.679770000000    -0.019941   
C621     C      0.781770000000     0.291730000000     0.667230000000    -0.0200859  
C622     C      0.818980000000     0.282820000000     0.651230000000     0.0131307  
C623     C      0.869140000000     0.286050000000     0.658270000000     0.0124207  
C624     C      0.911230000000     0.277260000000     0.646030000000    -0.0634459  
C625     C      0.937000000000     0.251040000000     0.611100000000    -0.020639   
C626     C      0.808010000000     0.270180000000     0.631760000000    -0.0661317  
C627     C      0.900280000000     0.264940000000     0.626460000000     0.014457   
C628     C      0.850020000000     0.261250000000     0.619590000000     0.0154142  
C629     C      0.811750000000     0.707240000000     0.730530000000    -0.0204886  
C630     C      0.837060000000     0.554580000000     0.695080000000    -0.019621   
C631     C      0.914010000000     0.582230000000     0.710630000000    -0.0203454  
C632     C      0.869290000000     0.608800000000     0.713690000000     0.0146041  
C633     C      0.825320000000     0.592920000000     0.704930000000     0.0126722  
C634     C      0.778400000000     0.613390000000     0.705050000000    -0.0645392  
C635     C      0.733970000000     0.678330000000     0.716240000000    -0.0208432  
C636     C      0.868950000000     0.646280000000     0.722770000000    -0.0650796  
C637     C      0.777760000000     0.650400000000     0.714560000000     0.0138895  
C638     C      0.821950000000     0.666630000000     0.722970000000     0.01455    
C639     C      0.044480000000     0.572130000000     0.627420000000    -0.0206252  
C640     C      0.216330000000     0.677780000000     0.623160000000    -0.0207179  
C641     C      0.137770000000     0.701350000000     0.607210000000    -0.0205267  
C642     C      0.130800000000     0.660280000000     0.614800000000     0.0147103  
C643     C      0.175370000000     0.646990000000     0.624120000000     0.0137808  
C644     C      0.176890000000     0.610410000000     0.634150000000    -0.0638582  
C645     C      0.121680000000     0.549520000000     0.644640000000    -0.019616   
C646     C      0.085690000000     0.637350000000     0.614590000000    -0.0651616  
C647     C      0.131790000000     0.587360000000     0.633880000000     0.0124288  
C648     C      0.087570000000     0.600360000000     0.624200000000     0.0149585  
C649     C      0.867950000000     0.382450000000     0.628250000000    -0.0219844  
C650     C      0.873990000000     0.326630000000     0.548020000000    -0.0181459  
C651     C      0.788660000000     0.338180000000     0.561560000000    -0.0200594  
C652     C      0.828480000000     0.344300000000     0.577090000000     0.0136231  
C653     C      0.877250000000     0.337520000000     0.569510000000     0.0122234  
C654     C      0.921520000000     0.343850000000     0.581200000000    -0.0630141  
C655     C      0.953900000000     0.370190000000     0.615510000000    -0.0215535  
C656     C      0.821120000000     0.357790000000     0.596600000000    -0.0661112  
C657     C      0.914180000000     0.357200000000     0.600830000000     0.0142636  
C658     C      0.865240000000     0.364000000000     0.608250000000     0.0162527  
C659     C      0.730350000000     0.677990000000     0.466540000000    -0.0208999  
C660     C      0.910560000000     0.581840000000     0.461710000000    -0.0203439  
C661     C      0.834080000000     0.554180000000     0.445820000000    -0.0197734  
C662     C      0.822070000000     0.592580000000     0.455580000000     0.012688   
C663     C      0.865780000000     0.608450000000     0.464540000000     0.0145469  
C664     C      0.865170000000     0.645930000000     0.473620000000    -0.0650779  
C665     C      0.807730000000     0.706880000000     0.481160000000    -0.0204484  
C666     C      0.775150000000     0.613080000000     0.455480000000    -0.0645695  
C667     C      0.818170000000     0.666300000000     0.473610000000     0.0144884  
C668     C      0.774230000000     0.650090000000     0.465000000000     0.0138936  
C669     C      0.043030000000     0.571940000000     0.378690000000    -0.0206561  
C670     C      0.214870000000     0.677580000000     0.374400000000    -0.0208195  
C671     C      0.136750000000     0.700690000000     0.357950000000    -0.0205979  
C672     C      0.129570000000     0.659840000000     0.365820000000     0.0146893  
C673     C      0.173880000000     0.646840000000     0.375430000000     0.0137481  
C674     C      0.175140000000     0.610570000000     0.385740000000    -0.0638966  
C675     C      0.119830000000     0.549820000000     0.396350000000    -0.0195765  
C676     C      0.084480000000     0.636870000000     0.365590000000    -0.0652529  
C677     C      0.130120000000     0.587450000000     0.385420000000     0.0123292  
C678     C      0.086150000000     0.600150000000     0.375470000000     0.0149546  
C679     C      0.876920000000     0.326850000000     0.798410000000    -0.0181871  
C680     C      0.867740000000     0.382610000000     0.378600000000    -0.0219218  
C681     C      0.954240000000     0.370580000000     0.366360000000    -0.021783   
C682     C      0.915150000000     0.357590000000     0.351430000000     0.0144655  
C683     C      0.865900000000     0.364240000000     0.358570000000     0.0161398  
C684     C      0.822270000000     0.357890000000     0.346670000000    -0.0660264  
C685     C      0.791080000000     0.338070000000     0.811540000000    -0.0200152  
C686     C      0.923250000000     0.344350000000     0.831840000000    -0.0630889  
C687     C      0.830350000000     0.344470000000     0.827250000000     0.0136678  
C688     C      0.879420000000     0.337860000000     0.819920000000     0.0123839  
C689     C      0.336340000000     0.583560000000     0.653280000000    -0.0196494  
C690     C      0.309580000000     0.430500000000     0.618200000000    -0.0205304  
C691     C      0.232260000000     0.459280000000     0.632440000000    -0.0208913  
C692     C      0.276140000000     0.487410000000     0.634010000000     0.0138627  
C693     C      0.320050000000     0.471230000000     0.625630000000     0.0146198  
C694     C      0.367100000000     0.491730000000     0.625760000000    -0.0651468  
C695     C      0.412690000000     0.556010000000     0.637720000000    -0.0203477  
C696     C      0.277160000000     0.524520000000     0.643440000000    -0.0645158  
C697     C      0.367810000000     0.529280000000     0.634760000000     0.014679   
C698     C      0.324160000000     0.545110000000     0.643510000000     0.0126387  
C699     C      0.216760000000     0.177780000000     0.599620000000    -0.0206542  
C700     C      0.388120000000     0.072490000000     0.595080000000    -0.0206211  
C701     C      0.310590000000     0.049830000000     0.578040000000    -0.0196309  
C702     C      0.300840000000     0.087660000000     0.588740000000     0.0124254  
C703     C      0.345240000000     0.100690000000     0.598320000000     0.0148982  
C704     C      0.347420000000     0.137640000000     0.607890000000    -0.0651762  
C705     C      0.295590000000     0.201460000000     0.615390000000    -0.0206119  
C706     C      0.255850000000     0.110630000000     0.588540000000    -0.0638578  
C707     C      0.302400000000     0.160500000000     0.607740000000     0.0146793  
C708     C      0.257660000000     0.147170000000     0.598520000000     0.0137605  
C709     C      0.065000000000     0.255370000000     0.754470000000    -0.0219473  
C710     C      0.057390000000     0.310720000000     0.674000000000    -0.0181387  
C711     C      0.142950000000     0.298810000000     0.687620000000    -0.0200069  
C712     C      0.103460000000     0.292920000000     0.703160000000     0.0135653  
C713     C      0.054560000000     0.299880000000     0.695530000000     0.0123517  
C714     C      0.010530000000     0.293830000000     0.707220000000    -0.062575   
C715     C      0.978820000000     0.267990000000     0.741650000000    -0.0225946  
C716     C      0.111210000000     0.279520000000     0.722720000000    -0.0659442  
C717     C      0.018270000000     0.280570000000     0.726910000000     0.0150266  
C718     C      0.067340000000     0.273590000000     0.734380000000     0.0160964  
C719     C      0.063780000000     0.340520000000     0.555830000000    -0.0198177  
C720     C      0.082450000000     0.393460000000     0.475210000000    -0.0208277  
C721     C      0.994500000000     0.386270000000     0.487000000000    -0.0214676  
C722     C      0.031630000000     0.372370000000     0.502410000000     0.0148664  
C723     C      0.081730000000     0.376180000000     0.495570000000     0.0152958  
C724     C      0.124070000000     0.367470000000     0.507800000000    -0.0663076  
C725     C      0.151260000000     0.346110000000     0.543350000000    -0.02007    
C726     C      0.021220000000     0.360110000000     0.522020000000    -0.0628179  
C727     C      0.113630000000     0.354880000000     0.527300000000     0.0132689  
C728     C      0.063650000000     0.351500000000     0.534310000000     0.0121813  
C729     C      0.411540000000     0.556750000000     0.385900000000    -0.0204091  
C730     C      0.231920000000     0.459030000000     0.381280000000    -0.0208423  
C731     C      0.309430000000     0.430260000000     0.367180000000    -0.020498   
C732     C      0.319580000000     0.471240000000     0.374340000000     0.0145662  
C733     C      0.275560000000     0.487420000000     0.382620000000     0.0138979  
C734     C      0.276260000000     0.524780000000     0.391780000000    -0.0643867  
C735     C      0.334900000000     0.584390000000     0.401210000000    -0.0196379  
C736     C      0.366460000000     0.491980000000     0.374320000000    -0.0651278  
C737     C      0.323060000000     0.545640000000     0.391680000000     0.0126524  
C738     C      0.366850000000     0.529780000000     0.383050000000     0.014663   
C739     C      0.389050000000     0.072650000000     0.343830000000    -0.0203854  
C740     C      0.217590000000     0.177780000000     0.847960000000    -0.0206602  
C741     C      0.295450000000     0.200670000000     0.364900000000    -0.0206821  
C742     C      0.302540000000     0.159940000000     0.356980000000     0.0146294  
C743     C      0.258420000000     0.147060000000     0.847060000000     0.0134974  
C744     C      0.256910000000     0.110730000000     0.836870000000    -0.0640032  
C745     C      0.311720000000     0.049860000000     0.826530000000    -0.0198045  
C746     C      0.347620000000     0.137160000000     0.357120000000    -0.0651255  
C747     C      0.301730000000     0.087570000000     0.837300000000     0.012403   
C748     C      0.345860000000     0.100550000000     0.347200000000     0.0145943  
C749     C      0.977110000000     0.267430000000     0.490330000000    -0.0226173  
C750     C      0.142000000000     0.299530000000     0.436850000000    -0.0200925  
C751     C      0.056560000000     0.310390000000     0.422880000000    -0.0185329  
C752     C      0.053410000000     0.299970000000     0.444450000000     0.0122885  
C753     C      0.102250000000     0.293570000000     0.452270000000     0.0136769  
C754     C      0.109740000000     0.280420000000     0.471900000000    -0.0661547  
C755     C      0.063190000000     0.255940000000     0.503500000000    -0.0219066  
C756     C      0.009210000000     0.293570000000     0.456000000000    -0.0624852  
C757     C      0.065700000000     0.274140000000     0.483410000000     0.0161297  
C758     C      0.016690000000     0.280560000000     0.475750000000     0.0148278  
C759     C      0.084330000000     0.394020000000     0.724200000000    -0.0206839  
C760     C      0.064710000000     0.340700000000     0.804730000000    -0.0198787  
C761     C      0.152340000000     0.346120000000     0.792380000000    -0.0199473  
C762     C      0.114910000000     0.355210000000     0.776310000000     0.0130843  
C763     C      0.064850000000     0.351950000000     0.783250000000     0.0124902  
C764     C      0.022580000000     0.360800000000     0.770930000000    -0.0629571  
C765     C      0.996270000000     0.387060000000     0.735910000000    -0.0215191  
C766     C      0.125590000000     0.367880000000     0.756840000000    -0.0659858  
C767     C      0.033230000000     0.373180000000     0.751360000000     0.0150378  
C768     C      0.083400000000     0.376850000000     0.744580000000     0.0153023  
H1       H      0.461300000000     0.911320000000     0.230590000000     0.0483188  
H2       H      0.327400000000     0.921820000000     0.248000000000     0.0482519  
H3       H      0.268670000000     0.870840000000     0.220340000000     0.0460444  
H4       H      0.449970000000     0.858770000000     0.195790000000     0.0449764  
H5       H      0.388580000000     0.863880000000     0.158260000000     0.0427593  
H6       H      0.257750000000     0.819230000000     0.183310000000     0.0460206  
H7       H      0.462830000000     0.862160000000     0.241350000000     0.0477609  
H8       H      0.330900000000     0.872790000000     0.258730000000     0.0470296  
H9       H      0.254870000000     0.871390000000     0.176940000000     0.0471505  
H10      H      0.388050000000     0.811740000000     0.164950000000     0.0454046  
H11      H      0.328690000000     0.873650000000     0.009380000000     0.0570557  
H12      H      0.460910000000     0.863290000000     0.991910000000     0.0462364  
H13      H      0.447950000000     0.859680000000     0.946480000000     0.0447739  
H14      H      0.266580000000     0.871310000000     0.971020000000     0.0450761  
H15      H      0.256040000000     0.819270000000     0.934140000000     0.0454671  
H16      H      0.386590000000     0.864050000000     0.908920000000     0.0427218  
H17      H      0.325280000000     0.922690000000     0.998660000000     0.0487546  
H18      H      0.458950000000     0.912520000000     0.981240000000     0.0473901  
H19      H      0.386390000000     0.812040000000     0.915850000000     0.0453403  
H20      H      0.252760000000     0.871320000000     0.927560000000     0.0467249  
H21      H      0.450600000000     0.891670000000     0.113940000000     0.0511198  
H22      H      0.584110000000     0.911260000000     0.094040000000     0.0506679  
H23      H      0.648450000000     0.864670000000     0.120350000000     0.0463658  
H24      H      0.472180000000     0.839080000000     0.147710000000     0.0454355  
H25      H      0.536300000000     0.847340000000     0.184250000000     0.0418624  
H26      H      0.669270000000     0.813630000000     0.157010000000     0.0458399  
H27      H      0.454880000000     0.843930000000     0.101770000000     0.0507185  
H28      H      0.580100000000     0.862590000000     0.082910000000     0.0474838  
H29      H      0.666800000000     0.865790000000     0.163300000000     0.0472699  
H30      H      0.543270000000     0.795750000000     0.177330000000     0.0455467  
H31      H      0.580030000000     0.862460000000     0.333090000000     0.0473224  
H32      H      0.453950000000     0.844470000000     0.851470000000     0.0506556  
H33      H      0.469890000000     0.839690000000     0.897450000000     0.0458656  
H34      H      0.647240000000     0.864100000000     0.870860000000     0.0461101  
H35      H      0.666460000000     0.813030000000     0.907610000000     0.0459199  
H36      H      0.533160000000     0.847660000000     0.934290000000     0.0413121  
H37      H      0.584140000000     0.911150000000     0.344180000000     0.050345   
H38      H      0.449970000000     0.892370000000     0.863480000000     0.0511905  
H39      H      0.539720000000     0.796000000000     0.927440000000     0.0457668  
H40      H      0.664380000000     0.865210000000     0.913870000000     0.0470624  
H41      H      0.353060000000     0.775660000000     0.208340000000     0.0473519  
H42      H      0.478830000000     0.793160000000     0.227650000000     0.0506163  
H43      H      0.461690000000     0.797850000000     0.273520000000     0.0451439  
H44      H      0.284970000000     0.773980000000     0.245540000000     0.0461949  
H45      H      0.265080000000     0.824980000000     0.282150000000     0.0459336  
H46      H      0.397580000000     0.789690000000     0.309810000000     0.0418548  
H47      H      0.348630000000     0.726960000000     0.219500000000     0.0503557  
H48      H      0.482300000000     0.745270000000     0.239830000000     0.0509702  
H49      H      0.391370000000     0.841440000000     0.302940000000     0.0458826  
H50      H      0.266720000000     0.772710000000     0.288390000000     0.0472609  
H51      H      0.677540000000     0.765660000000     0.053330000000     0.0486677  
H52      H      0.543560000000     0.773130000000     0.034280000000     0.0445638  
H53      H      0.482660000000     0.778220000000     0.071660000000     0.0455491  
H54      H      0.664240000000     0.766400000000     0.096710000000     0.0465148  
H55      H      0.605710000000     0.715490000000     0.124440000000     0.0485927  
H56      H      0.470190000000     0.775080000000     0.117110000000     0.047814   
H57      H      0.674710000000     0.817840000000     0.059530000000     0.0467324  
H58      H      0.544220000000     0.825270000000     0.040850000000     0.0461787  
H59      H      0.471830000000     0.725770000000     0.106660000000     0.0487534  
H60      H      0.602570000000     0.764620000000     0.134930000000     0.0472222  
H61      H      0.391100000000     0.842170000000     0.051450000000     0.0455349  
H62      H      0.264380000000     0.824380000000     0.031290000000     0.0465545  
H63      H      0.283830000000     0.773230000000     0.994760000000     0.0332598  
H64      H      0.461120000000     0.798810000000     0.021830000000     0.0456577  
H65      H      0.476630000000     0.794200000000     0.975910000000     0.0490372  
H66      H      0.347450000000     0.726530000000     0.968460000000     0.0477984  
H67      H      0.398210000000     0.790570000000     0.058480000000     0.0419794  
H68      H      0.266980000000     0.772230000000     0.037720000000     0.0481492  
H69      H      0.350520000000     0.775230000000     0.957250000000     0.0456852  
H70      H      0.481490000000     0.746330000000     0.988050000000     0.0486504  
H71      H      0.547410000000     0.826170000000     0.289800000000     0.0456498  
H72      H      0.677350000000     0.818280000000     0.309080000000     0.0458811  
H73      H      0.665320000000     0.766730000000     0.846250000000     0.0460517  
H74      H      0.484660000000     0.779320000000     0.320260000000     0.0446908  
H75      H      0.470570000000     0.775860000000     0.865720000000     0.0479373  
H76      H      0.605670000000     0.715980000000     0.873640000000     0.0483302  
H77      H      0.546720000000     0.774020000000     0.283240000000     0.0429443  
H78      H      0.680000000000     0.766080000000     0.302880000000     0.0470579  
H79      H      0.602310000000     0.765060000000     0.884170000000     0.0470997  
H80      H      0.472440000000     0.726620000000     0.855180000000     0.0482644  
H81      H      0.630720000000     0.586310000000     0.187020000000     0.0474951  
H82      H      0.511790000000     0.550540000000     0.213370000000     0.047419   
H83      H      0.551950000000     0.488540000000     0.239310000000     0.0467964  
H84      H      0.711700000000     0.536990000000     0.205270000000     0.0437418  
H85      H      0.730560000000     0.451590000000     0.208510000000     0.0483947  
H86      H      0.634580000000     0.433780000000     0.255920000000     0.0463244  
H87      H      0.646660000000     0.612770000000     0.209680000000     0.0424861  
H88      H      0.534090000000     0.578600000000     0.234740000000     0.0455107  
H89      H      0.610690000000     0.414820000000     0.232390000000     0.0492447  
H90      H      0.750810000000     0.470090000000     0.232620000000     0.0465458  
H91      H      0.507330000000     0.069850000000     0.246450000000     0.0458051  
H92      H      0.619980000000     0.029040000000     0.270390000000     0.0437995  
H93      H      0.690920000000     0.101010000000     0.274860000000     0.0435349  
H94      H      0.533250000000     0.158270000000     0.242410000000     0.0467942  
H95      H      0.619250000000     0.208310000000     0.225000000000     0.046376   
H96      H      0.718450000000     0.185170000000     0.271210000000     0.0497156  
H97      H      0.489780000000     0.096920000000     0.268660000000     0.046594   
H98      H      0.606490000000     0.054960000000     0.293380000000     0.0479578  
H99      H      0.733720000000     0.165220000000     0.246920000000     0.0462749  
H100     H      0.600360000000     0.228830000000     0.248770000000     0.0491464  
H101     H      0.606740000000     0.415590000000     0.982500000000     0.050621   
H102     H      0.727090000000     0.451800000000     0.958680000000     0.0483743  
H103     H      0.708370000000     0.536940000000     0.954850000000     0.0433691  
H104     H      0.547930000000     0.489510000000     0.988760000000     0.045619   
H105     H      0.508400000000     0.550980000000     0.962260000000     0.046729   
H106     H      0.643520000000     0.612900000000     0.958660000000     0.0419876  
H107     H      0.630380000000     0.435080000000     0.005960000000     0.0567869  
H108     H      0.746910000000     0.470780000000     0.982750000000     0.0451815  
H109     H      0.627880000000     0.585970000000     0.936120000000     0.0473592  
H110     H      0.530230000000     0.579430000000     0.983570000000     0.0440235  
H111     H      0.503350000000     0.070430000000     0.997240000000     0.0369161  
H112     H      0.616820000000     0.029440000000     0.020490000000     0.0451201  
H113     H      0.687980000000     0.101340000000     0.024690000000     0.0438323  
H114     H      0.529200000000     0.158910000000     0.993200000000     0.0465474  
H115     H      0.614720000000     0.209120000000     0.975460000000     0.0453448  
H116     H      0.715200000000     0.185530000000     0.021190000000     0.0482609  
H117     H      0.486670000000     0.097420000000     0.019580000000     0.0469539  
H118     H      0.604270000000     0.055270000000     0.043580000000     0.0480551  
H119     H      0.729840000000     0.165900000000     0.996780000000     0.0357146  
H120     H      0.596440000000     0.229380000000     0.999360000000     0.0466654  
H121     H      0.106130000000     0.083680000000     0.305350000000     0.0478622  
H122     H      0.989170000000     0.040340000000     0.328740000000     0.0461073  
H123     H      0.031000000000     0.978420000000     0.854890000000     0.046747   
H124     H      0.189650000000     0.036780000000     0.323800000000     0.0434177  
H125     H      0.216100000000     0.952440000000     0.326650000000     0.0493493  
H126     H      0.116320000000     0.927040000000     0.871910000000     0.0462505  
H127     H      0.119250000000     0.108720000000     0.328690000000     0.0436679  
H128     H      0.006320000000     0.067260000000     0.851990000000     0.0455117  
H129     H      0.097290000000     0.907990000000     0.847750000000     0.0489105  
H130     H      0.231330000000     0.971270000000     0.850960000000     0.0462774  
H131     H      0.825830000000     0.915980000000     0.240210000000     0.0489831  
H132     H      0.705400000000     0.951130000000     0.264120000000     0.0482634  
H133     H      0.723910000000     0.036350000000     0.268040000000     0.0436806  
H134     H      0.884390000000     0.990310000000     0.234030000000     0.0463349  
H135     H      0.923860000000     0.051520000000     0.260600000000     0.0472438  
H136     H      0.788710000000     0.112700000000     0.264390000000     0.0424017  
H137     H      0.802030000000     0.935640000000     0.216790000000     0.0461664  
H138     H      0.685480000000     0.970280000000     0.240070000000     0.0464891  
H139     H      0.804380000000     0.085430000000     0.286870000000     0.0473698  
H140     H      0.901920000000     0.080260000000     0.239380000000     0.0454954  
H141     H      0.830570000000     0.264750000000     0.338680000000     0.0471498  
H142     H      0.962060000000     0.276150000000     0.857250000000     0.0479302  
H143     H      0.948100000000     0.279870000000     0.902630000000     0.044459   
H144     H      0.767340000000     0.266890000000     0.876770000000     0.0459989  
H145     H      0.755780000000     0.318900000000     0.913570000000     0.0458656  
H146     H      0.885970000000     0.274990000000     0.939710000000     0.0423475  
H147     H      0.826840000000     0.215760000000     0.349440000000     0.048227   
H148     H      0.960090000000     0.226990000000     0.868000000000     0.0480222  
H149     H      0.885730000000     0.327030000000     0.932820000000     0.0454241  
H150     H      0.752610000000     0.266820000000     0.920110000000     0.0469166  
H151     H      0.006050000000     0.066670000000     0.100240000000     0.0458353  
H152     H      0.118890000000     0.108370000000     0.077060000000     0.0438743  
H153     H      0.189470000000     0.036720000000     0.072330000000     0.0439725  
H154     H      0.031570000000     0.978180000000     0.103700000000     0.0471975  
H155     H      0.117330000000     0.927900000000     0.121130000000     0.0465309  
H156     H      0.216720000000     0.952470000000     0.075520000000     0.0504354  
H157     H      0.988320000000     0.040310000000     0.077730000000     0.0466257  
H158     H      0.105220000000     0.083180000000     0.053820000000     0.0490594  
H159     H      0.232020000000     0.971930000000     0.099980000000     0.0462827  
H160     H      0.098600000000     0.907910000000     0.097130000000     0.0496876  
H161     H      0.681920000000     0.969850000000     0.990570000000     0.0490784  
H162     H      0.797980000000     0.934670000000     0.967050000000     0.0449591  
H163     H      0.880740000000     0.989410000000     0.983810000000     0.0453051  
H164     H      0.721170000000     0.036320000000     0.018170000000     0.046962   
H165     H      0.786240000000     0.112500000000     0.014000000000     0.0447172  
H166     H      0.921050000000     0.050900000000     0.009980000000     0.0475587  
H167     H      0.702300000000     0.950940000000     0.014610000000     0.0598167  
H168     H      0.822100000000     0.915300000000     0.990480000000     0.04652    
H169     H      0.898660000000     0.079390000000     0.988740000000     0.036536   
H170     H      0.802260000000     0.085550000000     0.036550000000     0.047933   
H171     H      0.755590000000     0.266270000000     0.169830000000     0.0472896  
H172     H      0.889540000000     0.274030000000     0.188910000000     0.0426962  
H173     H      0.950650000000     0.278910000000     0.151530000000     0.0450351  
H174     H      0.769090000000     0.266520000000     0.126460000000     0.0462648  
H175     H      0.827430000000     0.215480000000     0.098970000000     0.0484303  
H176     H      0.963120000000     0.275460000000     0.106060000000     0.0477464  
H177     H      0.758810000000     0.318380000000     0.163360000000     0.0460043  
H178     H      0.889250000000     0.326100000000     0.182100000000     0.0452358  
H179     H      0.961460000000     0.226240000000     0.116760000000     0.0482711  
H180     H      0.830910000000     0.264540000000     0.088280000000     0.0474059  
H181     H      0.929300000000     0.571030000000     0.225220000000     0.0456234  
H182     H      0.815410000000     0.529850000000     0.202120000000     0.0437861  
H183     H      0.744670000000     0.601600000000     0.197830000000     0.0436204  
H184     H      0.903840000000     0.659380000000     0.229110000000     0.0466745  
H185     H      0.818650000000     0.709200000000     0.246920000000     0.046266   
H186     H      0.717600000000     0.685710000000     0.201360000000     0.0499195  
H187     H      0.946000000000     0.597920000000     0.202760000000     0.0464583  
H188     H      0.828190000000     0.555640000000     0.178960000000     0.0481391  
H189     H      0.703230000000     0.665720000000     0.225790000000     0.046332   
H190     H      0.836600000000     0.729790000000     0.222990000000     0.0489085  
H191     H      0.109920000000     0.722050000000     0.114040000000     0.0497184  
H192     H      0.230420000000     0.686230000000     0.138290000000     0.0483728  
H193     H      0.211260000000     0.601030000000     0.142220000000     0.0437697  
H194     H      0.050780000000     0.648120000000     0.107790000000     0.0476505  
H195     H      0.011050000000     0.587090000000     0.134320000000     0.0478455  
H196     H      0.145610000000     0.525070000000     0.138550000000     0.0426102  
H197     H      0.133400000000     0.702460000000     0.090700000000     0.0473176  
H198     H      0.249900000000     0.667200000000     0.114290000000     0.0469272  
H199     H      0.130520000000     0.552380000000     0.160950000000     0.0472609  
H200     H      0.032470000000     0.558240000000     0.113210000000     0.0464178  
H201     H      0.765290000000     0.365550000000     0.059490000000     0.0484706  
H202     H      0.896010000000     0.348050000000     0.038730000000     0.0431299  
H203     H      0.959880000000     0.339760000000     0.075330000000     0.0453093  
H204     H      0.783360000000     0.364460000000     0.102430000000     0.0465919  
H205     H      0.847650000000     0.411440000000     0.128680000000     0.0507218  
H206     H      0.976770000000     0.344490000000     0.121270000000     0.0502735  
H207     H      0.762930000000     0.313320000000     0.065790000000     0.0465627  
H208     H      0.889120000000     0.296340000000     0.045620000000     0.0463137  
H209     H      0.981180000000     0.392290000000     0.109050000000     0.0511716  
H210     H      0.851260000000     0.362800000000     0.139950000000     0.0473672  
H211     H      0.825460000000     0.555140000000     0.929610000000     0.0478682  
H212     H      0.942610000000     0.597280000000     0.953990000000     0.0459174  
H213     H      0.899720000000     0.658760000000     0.980160000000     0.0454356  
H214     H      0.741460000000     0.601310000000     0.948060000000     0.0435274  
H215     H      0.714310000000     0.685450000000     0.951620000000     0.0497348  
H216     H      0.814170000000     0.708600000000     0.997620000000     0.0442785  
H217     H      0.811890000000     0.529400000000     0.952710000000     0.0433532  
H218     H      0.925110000000     0.570410000000     0.976360000000     0.0442609  
H219     H      0.832690000000     0.729300000000     0.973780000000     0.0482603  
H220     H      0.699220000000     0.665260000000     0.975930000000     0.045336   
H221     H      0.108550000000     0.721460000000     0.864430000000     0.0492397  
H222     H      0.228270000000     0.686490000000     0.889590000000     0.048351   
H223     H      0.209010000000     0.601500000000     0.894160000000     0.0434168  
H224     H      0.049710000000     0.647250000000     0.858460000000     0.046912   
H225     H      0.009210000000     0.586890000000     0.885280000000     0.0473941  
H226     H      0.143830000000     0.525220000000     0.890560000000     0.0425111  
H227     H      0.132860000000     0.701140000000     0.841380000000     0.0462725  
H228     H      0.248560000000     0.666700000000     0.865840000000     0.0465425  
H229     H      0.127830000000     0.553060000000     0.912710000000     0.0470921  
H230     H      0.031360000000     0.557570000000     0.864450000000     0.045827   
H231     H      0.981320000000     0.392760000000     0.359930000000     0.0510805  
H232     H      0.847030000000     0.411530000000     0.878760000000     0.050293   
H233     H      0.783920000000     0.364250000000     0.852140000000     0.0462135  
H234     H      0.961680000000     0.340130000000     0.326040000000     0.0458022  
H235     H      0.899030000000     0.348080000000     0.289030000000     0.0416182  
H236     H      0.765250000000     0.312940000000     0.315420000000     0.0459019  
H237     H      0.976790000000     0.345010000000     0.872040000000     0.0501325  
H238     H      0.850260000000     0.362880000000     0.890020000000     0.0473804  
H239     H      0.767500000000     0.365150000000     0.309060000000     0.0472302  
H240     H      0.892280000000     0.296370000000     0.295940000000     0.0457309  
H241     H      0.201260000000     0.471780000000     0.122790000000     0.0466967  
H242     H      0.316090000000     0.428660000000     0.101730000000     0.0471542  
H243     H      0.401780000000     0.478920000000     0.119460000000     0.0473478  
H244     H      0.243560000000     0.536290000000     0.150670000000     0.0436478  
H245     H      0.314370000000     0.608240000000     0.146360000000     0.043783   
H246     H      0.444800000000     0.540600000000     0.145700000000     0.0468481  
H247     H      0.216310000000     0.452020000000     0.147250000000     0.0498424  
H248     H      0.334700000000     0.408320000000     0.125700000000     0.04929    
H249     H      0.427420000000     0.567390000000     0.123250000000     0.0464251  
H250     H      0.327740000000     0.582550000000     0.169540000000     0.0479345  
H251     H      0.302110000000     0.052610000000     0.061840000000     0.0481152  
H252     H      0.422040000000     0.087480000000     0.088060000000     0.0477108  
H253     H      0.382990000000     0.148530000000     0.114610000000     0.0470025  
H254     H      0.221790000000     0.101160000000     0.080650000000     0.0440327  
H255     H      0.202880000000     0.186320000000     0.084540000000     0.0488567  
H256     H      0.300840000000     0.202520000000     0.131850000000     0.0463201  
H257     H      0.287040000000     0.025340000000     0.084330000000     0.0426373  
H258     H      0.400880000000     0.058740000000     0.109350000000     0.0456025  
H259     H      0.323800000000     0.222420000000     0.108430000000     0.0496408  
H260     H      0.183810000000     0.166960000000     0.108590000000     0.0465828  
H261     H      0.166460000000     0.271710000000     0.185390000000     0.0471858  
H262     H      0.035420000000     0.289870000000     0.164530000000     0.0420038  
H263     H      0.972530000000     0.298560000000     0.201100000000     0.0454486  
H264     H      0.149540000000     0.273080000000     0.228330000000     0.0461402  
H265     H      0.085440000000     0.226510000000     0.254720000000     0.050384   
H266     H      0.956760000000     0.294130000000     0.247010000000     0.0505422  
H267     H      0.169500000000     0.323940000000     0.191540000000     0.045757   
H268     H      0.042920000000     0.341560000000     0.171270000000     0.0459859  
H269     H      0.951710000000     0.246230000000     0.235010000000     0.0514482  
H270     H      0.082760000000     0.275200000000     0.265820000000     0.0474299  
H271     H      0.970460000000     0.410640000000     0.992680000000     0.0493712  
H272     H      0.104270000000     0.421520000000     0.974840000000     0.0444641  
H273     H      0.163240000000     0.370820000000     0.002460000000     0.0438931  
H274     H      0.982380000000     0.358030000000     0.027520000000     0.0495243  
H275     H      0.044420000000     0.363210000000     0.064880000000     0.0441619  
H276     H      0.174810000000     0.319230000000     0.039550000000     0.046178   
H277     H      0.968740000000     0.361540000000     0.981950000000     0.0499415  
H278     H      0.100150000000     0.372490000000     0.964220000000     0.0441161  
H279     H      0.177770000000     0.371380000000     0.045850000000     0.0473274  
H280     H      0.044770000000     0.311110000000     0.058250000000     0.0466907  
H281     H      0.334510000000     0.408470000000     0.874810000000     0.0487435  
H282     H      0.216130000000     0.451930000000     0.896260000000     0.0491249  
H283     H      0.242450000000     0.536470000000     0.899110000000     0.0433103  
H284     H      0.400980000000     0.479270000000     0.868090000000     0.0467767  
H285     H      0.443580000000     0.541660000000     0.893940000000     0.0466295  
H286     H      0.312730000000     0.608790000000     0.894210000000     0.0435314  
H287     H      0.315670000000     0.428140000000     0.850730000000     0.0465     
H288     H      0.200410000000     0.471170000000     0.871760000000     0.0465505  
H289     H      0.326010000000     0.583720000000     0.917570000000     0.0473768  
H290     H      0.425900000000     0.568020000000     0.871390000000     0.0457919  
H291     H      0.324240000000     0.221880000000     0.857740000000     0.0490513  
H292     H      0.203580000000     0.186460000000     0.333430000000     0.0485466  
H293     H      0.222880000000     0.101650000000     0.328800000000     0.0435931  
H294     H      0.382730000000     0.147690000000     0.864040000000     0.0465453  
H295     H      0.422730000000     0.087000000000     0.837490000000     0.0472405  
H296     H      0.288140000000     0.025620000000     0.332230000000     0.0426328  
H297     H      0.300040000000     0.201690000000     0.880900000000     0.0458344  
H298     H      0.183690000000     0.166340000000     0.357230000000     0.0465452  
H299     H      0.303860000000     0.053780000000     0.310070000000     0.0473164  
H300     H      0.400400000000     0.057960000000     0.858490000000     0.045376   
H301     H      0.041670000000     0.340360000000     0.919820000000     0.0467434  
H302     H      0.168150000000     0.324220000000     0.940540000000     0.0450883  
H303     H      0.148200000000     0.273680000000     0.977480000000     0.0423032  
H304     H      0.971380000000     0.297180000000     0.949630000000     0.0452659  
H305     H      0.954540000000     0.292850000000     0.995530000000     0.0486949  
H306     H      0.084440000000     0.226840000000     0.003800000000     0.0507491  
H307     H      0.035130000000     0.288470000000     0.913320000000     0.0421185  
H308     H      0.165980000000     0.271870000000     0.934620000000     0.0462197  
H309     H      0.080470000000     0.275610000000     0.014760000000     0.046577   
H310     H      0.950800000000     0.244870000000     0.983560000000     0.0503186  
H311     H      0.179080000000     0.371230000000     0.295320000000     0.0471757  
H312     H      0.045180000000     0.363560000000     0.813910000000     0.0430581  
H313     H      0.983770000000     0.359110000000     0.276560000000     0.0446256  
H314     H      0.165020000000     0.371390000000     0.251860000000     0.0460009  
H315     H      0.106390000000     0.422640000000     0.224160000000     0.0482529  
H316     H      0.970620000000     0.362860000000     0.231120000000     0.047892   
H317     H      0.175650000000     0.319220000000     0.288760000000     0.0457386  
H318     H      0.045370000000     0.311460000000     0.307180000000     0.0456082  
H319     H      0.972620000000     0.412060000000     0.241730000000     0.0483403  
H320     H      0.102590000000     0.373580000000     0.213560000000     0.0471579  
H321     H      0.461210000000     0.911420000000     0.730600000000     0.048331   
H322     H      0.327320000000     0.921850000000     0.748010000000     0.048313   
H323     H      0.268600000000     0.870890000000     0.720330000000     0.0461086  
H324     H      0.449900000000     0.858900000000     0.695770000000     0.0449929  
H325     H      0.388480000000     0.863970000000     0.658230000000     0.0427916  
H326     H      0.257690000000     0.819290000000     0.683300000000     0.0460862  
H327     H      0.462780000000     0.862230000000     0.741330000000     0.0477886  
H328     H      0.330820000000     0.872810000000     0.758720000000     0.0470937  
H329     H      0.254780000000     0.871450000000     0.676920000000     0.0472241  
H330     H      0.387990000000     0.811840000000     0.664940000000     0.0454083  
H331     H      0.328780000000     0.873440000000     0.509500000000     0.0470983  
H332     H      0.460980000000     0.863180000000     0.492030000000     0.047856   
H333     H      0.448030000000     0.859540000000     0.446590000000     0.0450118  
H334     H      0.266650000000     0.870980000000     0.471140000000     0.0460508  
H335     H      0.256220000000     0.818890000000     0.434260000000     0.0458667  
H336     H      0.386650000000     0.863870000000     0.409040000000     0.0428458  
H337     H      0.325260000000     0.922460000000     0.498760000000     0.0481495  
H338     H      0.458960000000     0.912390000000     0.481340000000     0.0482973  
H339     H      0.386550000000     0.811840000000     0.415960000000     0.0453267  
H340     H      0.252790000000     0.870940000000     0.427690000000     0.0472138  
H341     H      0.450580000000     0.891710000000     0.614010000000     0.0511676  
H342     H      0.584080000000     0.911290000000     0.594110000000     0.0505024  
H343     H      0.648420000000     0.864700000000     0.620400000000     0.0461811  
H344     H      0.472160000000     0.839100000000     0.647770000000     0.045473   
H345     H      0.536280000000     0.847350000000     0.684300000000     0.0419028  
H346     H      0.669250000000     0.813660000000     0.657070000000     0.0457606  
H347     H      0.454840000000     0.843980000000     0.601830000000     0.0507322  
H348     H      0.580040000000     0.862640000000     0.582960000000     0.047305   
H349     H      0.666780000000     0.865820000000     0.663350000000     0.0472176  
H350     H      0.543270000000     0.795760000000     0.677380000000     0.0455937  
H351     H      0.580170000000     0.862270000000     0.833140000000     0.0473363  
H352     H      0.453850000000     0.844820000000     0.351430000000     0.0506264  
H353     H      0.469830000000     0.839910000000     0.397410000000     0.0459417  
H354     H      0.647200000000     0.864130000000     0.370800000000     0.0461128  
H355     H      0.666350000000     0.812980000000     0.407550000000     0.0459102  
H356     H      0.533140000000     0.847760000000     0.434240000000     0.0416359  
H357     H      0.584070000000     0.911000000000     0.844200000000     0.050317   
H358     H      0.449970000000     0.892680000000     0.363490000000     0.0511925  
H359     H      0.539600000000     0.796090000000     0.427390000000     0.0458149  
H360     H      0.664380000000     0.865170000000     0.413800000000     0.0472451  
H361     H      0.353080000000     0.775730000000     0.708250000000     0.0473909  
H362     H      0.478830000000     0.793220000000     0.727560000000     0.050633   
H363     H      0.461720000000     0.797840000000     0.773440000000     0.0451904  
H364     H      0.284990000000     0.773970000000     0.745450000000     0.0462807  
H365     H      0.265060000000     0.824860000000     0.782080000000     0.0460318  
H366     H      0.397610000000     0.789630000000     0.809730000000     0.0418798  
H367     H      0.348630000000     0.727020000000     0.719400000000     0.0504676  
H368     H      0.482330000000     0.745320000000     0.739730000000     0.0510735  
H369     H      0.391340000000     0.841390000000     0.802880000000     0.0459408  
H370     H      0.266780000000     0.772580000000     0.788300000000     0.0473835  
H371     H      0.677500000000     0.765730000000     0.553290000000     0.047167   
H372     H      0.543520000000     0.773180000000     0.534240000000     0.0428327  
H373     H      0.482620000000     0.778280000000     0.571600000000     0.0452167  
H374     H      0.664200000000     0.766480000000     0.596660000000     0.0460406  
H375     H      0.605700000000     0.715550000000     0.624380000000     0.0482348  
H376     H      0.470160000000     0.775110000000     0.617070000000     0.0477983  
H377     H      0.674660000000     0.817920000000     0.559480000000     0.0458861  
H378     H      0.544170000000     0.825320000000     0.540790000000     0.0453389  
H379     H      0.471800000000     0.725820000000     0.606590000000     0.0483678  
H380     H      0.602510000000     0.764660000000     0.634880000000     0.0471577  
H381     H      0.390960000000     0.842000000000     0.551430000000     0.0454205  
H382     H      0.264220000000     0.824090000000     0.531290000000     0.0457919  
H383     H      0.283710000000     0.772890000000     0.494780000000     0.0461979  
H384     H      0.460990000000     0.798660000000     0.521810000000     0.0460691  
H385     H      0.476460000000     0.794050000000     0.475910000000     0.0506231  
H386     H      0.347420000000     0.726210000000     0.468480000000     0.0503177  
H387     H      0.398090000000     0.790420000000     0.558490000000     0.0416999  
H388     H      0.266890000000     0.771960000000     0.537750000000     0.0472821  
H389     H      0.350320000000     0.774920000000     0.457270000000     0.0473869  
H390     H      0.481410000000     0.746170000000     0.488030000000     0.0514434  
H391     H      0.547360000000     0.826030000000     0.789840000000     0.0456899  
H392     H      0.677320000000     0.818150000000     0.809110000000     0.045925   
H393     H      0.665330000000     0.766820000000     0.346210000000     0.0460195  
H394     H      0.484630000000     0.779160000000     0.820310000000     0.0447555  
H395     H      0.470630000000     0.776030000000     0.365670000000     0.0479653  
H396     H      0.605650000000     0.716050000000     0.373590000000     0.0482584  
H397     H      0.546680000000     0.773890000000     0.783280000000     0.0429997  
H398     H      0.679960000000     0.765950000000     0.802920000000     0.047129   
H399     H      0.602330000000     0.765140000000     0.384120000000     0.0470655  
H400     H      0.472390000000     0.726790000000     0.355140000000     0.0482383  
H401     H      0.630600000000     0.586210000000     0.686980000000     0.0473616  
H402     H      0.511650000000     0.550530000000     0.713330000000     0.0474646  
H403     H      0.551760000000     0.488570000000     0.739310000000     0.0468554  
H404     H      0.711560000000     0.536910000000     0.705250000000     0.0436957  
H405     H      0.730390000000     0.451530000000     0.708540000000     0.0483419  
H406     H      0.634370000000     0.433830000000     0.755950000000     0.0463962  
H407     H      0.646540000000     0.612720000000     0.709620000000     0.042483   
H408     H      0.533940000000     0.578620000000     0.734680000000     0.0456455  
H409     H      0.610490000000     0.414820000000     0.732430000000     0.0492714  
H410     H      0.750630000000     0.470060000000     0.732650000000     0.0465899  
H411     H      0.506870000000     0.070010000000     0.746710000000     0.045882   
H412     H      0.619670000000     0.029060000000     0.770530000000     0.0438596  
H413     H      0.690720000000     0.100960000000     0.774940000000     0.0435442  
H414     H      0.532900000000     0.158380000000     0.742670000000     0.0468661  
H415     H      0.618860000000     0.208340000000     0.725170000000     0.0464349  
H416     H      0.718320000000     0.185130000000     0.771280000000     0.0497202  
H417     H      0.489540000000     0.097030000000     0.768970000000     0.0466456  
H418     H      0.606340000000     0.054950000000     0.793530000000     0.0479013  
H419     H      0.733420000000     0.165160000000     0.746980000000     0.0462886  
H420     H      0.600150000000     0.228880000000     0.748950000000     0.0492145  
H421     H      0.606650000000     0.415450000000     0.482270000000     0.0491533  
H422     H      0.727030000000     0.451720000000     0.458500000000     0.0483851  
H423     H      0.708330000000     0.536880000000     0.454730000000     0.0436397  
H424     H      0.547830000000     0.489360000000     0.488570000000     0.0467881  
H425     H      0.508340000000     0.550910000000     0.462110000000     0.0473243  
H426     H      0.643480000000     0.612830000000     0.458590000000     0.0424426  
H427     H      0.630240000000     0.434880000000     0.505750000000     0.0462848  
H428     H      0.746820000000     0.470640000000     0.482590000000     0.046552   
H429     H      0.627870000000     0.585970000000     0.436020000000     0.0473895  
H430     H      0.530160000000     0.579290000000     0.483440000000     0.0455374  
H431     H      0.503220000000     0.070330000000     0.497250000000     0.0458461  
H432     H      0.616710000000     0.029450000000     0.520550000000     0.0438542  
H433     H      0.687870000000     0.101340000000     0.524640000000     0.043565   
H434     H      0.529100000000     0.158780000000     0.493090000000     0.0467809  
H435     H      0.614650000000     0.208860000000     0.475280000000     0.0463633  
H436     H      0.715150000000     0.185490000000     0.521020000000     0.0497388  
H437     H      0.486560000000     0.097430000000     0.519570000000     0.0466161  
H438     H      0.604140000000     0.055400000000     0.543610000000     0.0480216  
H439     H      0.729740000000     0.165730000000     0.496630000000     0.0463224  
H440     H      0.596370000000     0.229260000000     0.499140000000     0.0490759  
H441     H      0.106060000000     0.084390000000     0.805820000000     0.0480025  
H442     H      0.988420000000     0.041380000000     0.829360000000     0.0462187  
H443     H      0.031220000000     0.978480000000     0.354840000000     0.0468629  
H444     H      0.189440000000     0.036860000000     0.823940000000     0.0433955  
H445     H      0.214840000000     0.952510000000     0.826220000000     0.0492807  
H446     H      0.116640000000     0.927580000000     0.372190000000     0.0464617  
H447     H      0.119440000000     0.108900000000     0.829270000000     0.0435754  
H448     H      0.006190000000     0.066990000000     0.351520000000     0.0458287  
H449     H      0.097770000000     0.908120000000     0.348090000000     0.0489836  
H450     H      0.231810000000     0.971460000000     0.351160000000     0.046367   
H451     H      0.825860000000     0.915800000000     0.740440000000     0.0490258  
H452     H      0.705280000000     0.951070000000     0.764200000000     0.048297   
H453     H      0.723900000000     0.036300000000     0.768140000000     0.0436679  
H454     H      0.884630000000     0.990060000000     0.734360000000     0.0463768  
H455     H      0.923960000000     0.051240000000     0.760990000000     0.0472559  
H456     H      0.788870000000     0.112580000000     0.764560000000     0.0424485  
H457     H      0.802310000000     0.935510000000     0.716990000000     0.0461769  
H458     H      0.685610000000     0.970270000000     0.740120000000     0.0464945  
H459     H      0.804310000000     0.085320000000     0.787070000000     0.0473396  
H460     H      0.902300000000     0.079960000000     0.739720000000     0.0455135  
H461     H      0.830320000000     0.264890000000     0.838860000000     0.047136   
H462     H      0.962230000000     0.275890000000     0.357110000000     0.0479051  
H463     H      0.948200000000     0.279630000000     0.402490000000     0.0446435  
H464     H      0.767480000000     0.266820000000     0.376560000000     0.0460367  
H465     H      0.755900000000     0.318850000000     0.413360000000     0.0458431  
H466     H      0.885990000000     0.274840000000     0.439550000000     0.0428752  
H467     H      0.826760000000     0.215880000000     0.849610000000     0.0481737  
H468     H      0.960200000000     0.226740000000     0.367870000000     0.0481725  
H469     H      0.885800000000     0.326880000000     0.432660000000     0.0455435  
H470     H      0.752630000000     0.266770000000     0.419900000000     0.0471745  
H471     H      0.005950000000     0.066670000000     0.600280000000     0.045864   
H472     H      0.118720000000     0.108360000000     0.577050000000     0.0436499  
H473     H      0.189270000000     0.036700000000     0.572290000000     0.0435067  
H474     H      0.031470000000     0.978180000000     0.603730000000     0.0469951  
H475     H      0.117270000000     0.927890000000     0.621120000000     0.0465519  
H476     H      0.216510000000     0.952440000000     0.575470000000     0.0498158  
H477     H      0.988140000000     0.040310000000     0.577780000000     0.0461432  
H478     H      0.104960000000     0.083160000000     0.553810000000     0.0480375  
H479     H      0.231900000000     0.971910000000     0.599920000000     0.0462902  
H480     H      0.098460000000     0.907900000000     0.597130000000     0.049147   
H481     H      0.681780000000     0.969870000000     0.490520000000     0.0464863  
H482     H      0.797860000000     0.934760000000     0.467000000000     0.0461855  
H483     H      0.880600000000     0.989500000000     0.483790000000     0.046363   
H484     H      0.720990000000     0.036300000000     0.518160000000     0.0436781  
H485     H      0.786030000000     0.112510000000     0.514030000000     0.0424501  
H486     H      0.920870000000     0.050960000000     0.509980000000     0.0473326  
H487     H      0.702150000000     0.950940000000     0.514560000000     0.0482454  
H488     H      0.821980000000     0.915360000000     0.490420000000     0.0490984  
H489     H      0.898470000000     0.079490000000     0.488760000000     0.045545   
H490     H      0.802050000000     0.085510000000     0.536560000000     0.0474049  
H491     H      0.755300000000     0.266260000000     0.669880000000     0.0472723  
H492     H      0.889260000000     0.274040000000     0.688960000000     0.0427241  
H493     H      0.950340000000     0.278960000000     0.651590000000     0.0450581  
H494     H      0.768770000000     0.266510000000     0.626520000000     0.0460799  
H495     H      0.827110000000     0.215460000000     0.599050000000     0.0482572  
H496     H      0.962810000000     0.275440000000     0.606110000000     0.047776   
H497     H      0.758490000000     0.318380000000     0.663430000000     0.0459485  
H498     H      0.888930000000     0.326130000000     0.682170000000     0.0452967  
H499     H      0.961140000000     0.226240000000     0.616840000000     0.0483162  
H500     H      0.830610000000     0.264490000000     0.588330000000     0.0472125  
H501     H      0.929000000000     0.570840000000     0.725120000000     0.0457548  
H502     H      0.815070000000     0.529790000000     0.702000000000     0.0437457  
H503     H      0.744400000000     0.601590000000     0.697760000000     0.0435743  
H504     H      0.903630000000     0.659200000000     0.729070000000     0.0467419  
H505     H      0.818500000000     0.709040000000     0.746910000000     0.0463511  
H506     H      0.717420000000     0.685710000000     0.701340000000     0.049845   
H507     H      0.945720000000     0.597770000000     0.702680000000     0.0465031  
H508     H      0.827860000000     0.555630000000     0.678850000000     0.0479081  
H509     H      0.703040000000     0.665680000000     0.725750000000     0.0463777  
H510     H      0.836470000000     0.729660000000     0.722990000000     0.048949   
H511     H      0.109710000000     0.722090000000     0.614050000000     0.0493535  
H512     H      0.230140000000     0.686210000000     0.638320000000     0.0483676  
H513     H      0.210950000000     0.600990000000     0.642190000000     0.0437738  
H514     H      0.050540000000     0.648180000000     0.607740000000     0.046896   
H515     H      0.010740000000     0.587090000000     0.634230000000     0.047556   
H516     H      0.145300000000     0.525050000000     0.638460000000     0.0425034  
H517     H      0.133200000000     0.702540000000     0.590700000000     0.0463385  
H518     H      0.249670000000     0.667210000000     0.614310000000     0.0465166  
H519     H      0.130160000000     0.552310000000     0.660870000000     0.0473473  
H520     H      0.032210000000     0.558300000000     0.613110000000     0.0457343  
H521     H      0.765060000000     0.365350000000     0.559290000000     0.0472595  
H522     H      0.895830000000     0.347850000000     0.538560000000     0.0419121  
H523     H      0.959620000000     0.339630000000     0.575170000000     0.0451529  
H524     H      0.783060000000     0.364320000000     0.602230000000     0.0461998  
H525     H      0.847290000000     0.411350000000     0.628480000000     0.0504231  
H526     H      0.976480000000     0.344460000000     0.621110000000     0.0502926  
H527     H      0.762710000000     0.313120000000     0.565590000000     0.0458572  
H528     H      0.888900000000     0.296140000000     0.545460000000     0.0456947  
H529     H      0.980840000000     0.392240000000     0.608870000000     0.0508882  
H530     H      0.850930000000     0.362730000000     0.639760000000     0.047364   
H531     H      0.825370000000     0.555160000000     0.429560000000     0.0478194  
H532     H      0.942540000000     0.597350000000     0.453900000000     0.0464929  
H533     H      0.899660000000     0.658830000000     0.480080000000     0.0467016  
H534     H      0.741380000000     0.601320000000     0.448030000000     0.0435439  
H535     H      0.714210000000     0.685450000000     0.451580000000     0.0497105  
H536     H      0.814120000000     0.708640000000     0.497560000000     0.0463042  
H537     H      0.811860000000     0.529430000000     0.452670000000     0.043713   
H538     H      0.925100000000     0.570490000000     0.476280000000     0.0456698  
H539     H      0.832600000000     0.729340000000     0.473710000000     0.0489896  
H540     H      0.699160000000     0.665270000000     0.475900000000     0.0463375  
H541     H      0.108490000000     0.721620000000     0.364520000000     0.0493022  
H542     H      0.228290000000     0.686460000000     0.389540000000     0.0486165  
H543     H      0.208960000000     0.601470000000     0.394040000000     0.0435801  
H544     H      0.049520000000     0.647470000000     0.358520000000     0.0468831  
H545     H      0.009100000000     0.587010000000     0.385300000000     0.0474657  
H546     H      0.143690000000     0.525240000000     0.390400000000     0.0425536  
H547     H      0.132640000000     0.701380000000     0.341420000000     0.0461758  
H548     H      0.248430000000     0.666740000000     0.365760000000     0.0465311  
H549     H      0.127840000000     0.552980000000     0.412600000000     0.0475267  
H550     H      0.031120000000     0.557770000000     0.364420000000     0.045719   
H551     H      0.981230000000     0.392900000000     0.859910000000     0.0510896  
H552     H      0.847060000000     0.411500000000     0.378730000000     0.0502288  
H553     H      0.783960000000     0.364260000000     0.352090000000     0.0461331  
H554     H      0.961610000000     0.340240000000     0.826030000000     0.0458711  
H555     H      0.898870000000     0.348150000000     0.789040000000     0.0416523  
H556     H      0.765190000000     0.312930000000     0.815490000000     0.0459662  
H557     H      0.976730000000     0.344870000000     0.372050000000     0.0501784  
H558     H      0.850230000000     0.362860000000     0.389990000000     0.0473488  
H559     H      0.767360000000     0.365130000000     0.809120000000     0.0473349  
H560     H      0.892190000000     0.296440000000     0.795960000000     0.045774   
H561     H      0.201050000000     0.471700000000     0.622900000000     0.0464047  
H562     H      0.315860000000     0.428530000000     0.601830000000     0.0464389  
H563     H      0.401560000000     0.478850000000     0.619490000000     0.0468297  
H564     H      0.243410000000     0.536310000000     0.650710000000     0.0436394  
H565     H      0.314220000000     0.608250000000     0.646320000000     0.0437029  
H566     H      0.444650000000     0.540600000000     0.645660000000     0.0466285  
H567     H      0.216170000000     0.452000000000     0.647360000000     0.0498814  
H568     H      0.334500000000     0.408260000000     0.625810000000     0.0490562  
H569     H      0.427190000000     0.567340000000     0.623200000000     0.0458328  
H570     H      0.327630000000     0.582620000000     0.669510000000     0.0480359  
H571     H      0.302020000000     0.052650000000     0.561820000000     0.0472483  
H572     H      0.421840000000     0.087470000000     0.588140000000     0.047353   
H573     H      0.382680000000     0.148480000000     0.614680000000     0.046835   
H574     H      0.221620000000     0.101190000000     0.580590000000     0.0437338  
H575     H      0.202730000000     0.186370000000     0.584500000000     0.0483845  
H576     H      0.300480000000     0.202450000000     0.631880000000     0.0463205  
H577     H      0.286830000000     0.025350000000     0.584290000000     0.0424976  
H578     H      0.400560000000     0.058700000000     0.609400000000     0.0456457  
H579     H      0.323540000000     0.222390000000     0.608490000000     0.0492386  
H580     H      0.183530000000     0.166960000000     0.608530000000     0.0465756  
H581     H      0.166230000000     0.271490000000     0.685440000000     0.0472524  
H582     H      0.035190000000     0.289550000000     0.664590000000     0.041984   
H583     H      0.972290000000     0.298250000000     0.701180000000     0.0454579  
H584     H      0.149360000000     0.272880000000     0.728390000000     0.0462251  
H585     H      0.085300000000     0.226320000000     0.754830000000     0.0504712  
H586     H      0.956600000000     0.293920000000     0.747100000000     0.0505294  
H587     H      0.169240000000     0.323710000000     0.691600000000     0.0458216  
H588     H      0.042590000000     0.341250000000     0.671340000000     0.0459276  
H589     H      0.951530000000     0.245980000000     0.735130000000     0.0514123  
H590     H      0.082630000000     0.275050000000     0.765880000000     0.0474909  
H591     H      0.970370000000     0.410960000000     0.492700000000     0.0483944  
H592     H      0.104140000000     0.421980000000     0.474940000000     0.0484575  
H593     H      0.163160000000     0.371260000000     0.502580000000     0.0461126  
H594     H      0.982260000000     0.358330000000     0.527570000000     0.0444159  
H595     H      0.044230000000     0.363440000000     0.564970000000     0.0429803  
H596     H      0.174680000000     0.319580000000     0.539620000000     0.0459781  
H597     H      0.968710000000     0.361830000000     0.482010000000     0.0479198  
H598     H      0.100240000000     0.372940000000     0.464330000000     0.0471521  
H599     H      0.177600000000     0.371700000000     0.545990000000     0.0472144  
H600     H      0.044590000000     0.311360000000     0.558280000000     0.0457231  
H601     H      0.334490000000     0.408340000000     0.374950000000     0.0489246  
H602     H      0.216080000000     0.452000000000     0.396270000000     0.0494409  
H603     H      0.242440000000     0.536540000000     0.399000000000     0.0435086  
H604     H      0.401040000000     0.479090000000     0.368150000000     0.0467633  
H605     H      0.443590000000     0.541620000000     0.393930000000     0.0467277  
H606     H      0.312770000000     0.608810000000     0.394020000000     0.043594   
H607     H      0.315750000000     0.427870000000     0.350830000000     0.0464268  
H608     H      0.200450000000     0.471090000000     0.371740000000     0.0465107  
H609     H      0.325940000000     0.583880000000     0.417430000000     0.0478867  
H610     H      0.425990000000     0.567870000000     0.371330000000     0.0457042  
H611     H      0.323650000000     0.221810000000     0.358310000000     0.0492267  
H612     H      0.205140000000     0.186510000000     0.832660000000     0.0485228  
H613     H      0.223050000000     0.101620000000     0.828590000000     0.0435769  
H614     H      0.382670000000     0.147830000000     0.364140000000     0.0467407  
H615     H      0.422160000000     0.088490000000     0.336940000000     0.0470916  
H616     H      0.287590000000     0.025350000000     0.832550000000     0.0425958  
H617     H      0.299730000000     0.201170000000     0.381420000000     0.0461602  
H618     H      0.184090000000     0.166690000000     0.856620000000     0.0465255  
H619     H      0.303850000000     0.052930000000     0.810270000000     0.047565   
H620     H      0.401160000000     0.058530000000     0.358110000000     0.0457025  
H621     H      0.041370000000     0.340730000000     0.420010000000     0.0464906  
H622     H      0.167770000000     0.324780000000     0.440780000000     0.0460235  
H623     H      0.147860000000     0.274160000000     0.477710000000     0.0462152  
H624     H      0.971060000000     0.297430000000     0.449790000000     0.0448268  
H625     H      0.954140000000     0.293040000000     0.495700000000     0.0505107  
H626     H      0.084160000000     0.227180000000     0.503980000000     0.0504829  
H627     H      0.034900000000     0.288840000000     0.413510000000     0.0420836  
H628     H      0.165790000000     0.272410000000     0.434880000000     0.0472802  
H629     H      0.080020000000     0.275920000000     0.514970000000     0.0474284  
H630     H      0.950490000000     0.245080000000     0.483700000000     0.0510883  
H631     H      0.178830000000     0.371570000000     0.795110000000     0.0472765  
H632     H      0.045350000000     0.363430000000     0.314080000000     0.0430277  
H633     H      0.983560000000     0.359040000000     0.776400000000     0.0446839  
H634     H      0.164750000000     0.371510000000     0.751660000000     0.0460872  
H635     H      0.106020000000     0.422550000000     0.723930000000     0.0483492  
H636     H      0.970350000000     0.362660000000     0.730950000000     0.047931   
H637     H      0.175600000000     0.319520000000     0.788600000000     0.0458362  
H638     H      0.045340000000     0.311580000000     0.807060000000     0.0456869  
H639     H      0.972250000000     0.411880000000     0.741540000000     0.0484474  
H640     H      0.102250000000     0.373460000000     0.713360000000     0.0471753  
In1      In     0.179760000000     0.319720000000     0.864690000000     2.42526    
In2      In     0.179700000000     0.320200000000     0.115630000000     2.42559    
In3      In     0.977360000000     0.464940000000     0.923790000000     2.40848    
In4      In     0.979780000000     0.465190000000     0.172680000000     2.41068    
In5      In     0.953110000000     0.173110000000     0.047750000000     2.40904    
In6      In     0.954230000000     0.173550000000     0.298820000000     2.41022    
In7      In     0.751080000000     0.317640000000     0.989770000000     2.41185    
In8      In     0.755290000000     0.316940000000     0.239450000000     2.42508    
In9      In     0.478200000000     0.673700000000     0.924330000000     2.41046    
In10     In     0.480010000000     0.673200000000     0.175830000000     2.40943    
In11     In     0.677720000000     0.816690000000     0.983530000000     2.40874    
In12     In     0.681800000000     0.817170000000     0.232990000000     2.42612    
In13     In     0.451940000000     0.965080000000     0.050250000000     2.413      
In14     In     0.453740000000     0.964960000000     0.299430000000     2.40889    
In15     In     0.252570000000     0.820000000000     0.858000000000     2.42601    
In16     In     0.253960000000     0.820570000000     0.107240000000     2.42567    
In17     In     0.179630000000     0.319640000000     0.364910000000     2.42556    
In18     In     0.179430000000     0.320170000000     0.615700000000     2.42514    
In19     In     0.977330000000     0.464980000000     0.423740000000     2.40818    
In20     In     0.979390000000     0.465120000000     0.672520000000     2.41104    
In21     In     0.952840000000     0.173100000000     0.547820000000     2.40857    
In22     In     0.954150000000     0.173590000000     0.799040000000     2.41013    
In23     In     0.751000000000     0.317500000000     0.489560000000     2.42685    
In24     In     0.755050000000     0.316910000000     0.739520000000     2.42517    
In25     In     0.478170000000     0.673710000000     0.424250000000     2.41059    
In26     In     0.479960000000     0.673180000000     0.675760000000     2.40982    
In27     In     0.677650000000     0.816710000000     0.483470000000     2.42425    
In28     In     0.681770000000     0.817130000000     0.733040000000     2.42656    
In29     In     0.451870000000     0.965100000000     0.550310000000     2.41205    
In30     In     0.453630000000     0.964770000000     0.799520000000     2.40904    
In31     In     0.252660000000     0.820060000000     0.358100000000     2.4268     
In32     In     0.253840000000     0.820560000000     0.607240000000     2.42534    
N1       N      0.313960000000     0.838500000000     0.162310000000    -0.165415   
N2       N      0.403540000000     0.899580000000     0.252500000000    -0.16635    
N3       N      0.312130000000     0.838460000000     0.913070000000    -0.165488   
N4       N      0.401380000000     0.900410000000     0.003170000000    -0.156476   
N5       N      0.613500000000     0.828660000000     0.178930000000    -0.165445   
N6       N      0.507920000000     0.887280000000     0.091110000000    -0.166047   
N7       N      0.610280000000     0.828450000000     0.929300000000    -0.165465   
N8       N      0.507850000000     0.887300000000     0.840910000000    -0.166122   
N9       N      0.320670000000     0.809130000000     0.304250000000    -0.165288   
N10      N      0.425030000000     0.750450000000     0.216770000000    -0.166218   
N11      N      0.529730000000     0.737930000000     0.128670000000    -0.166293   
N12      N      0.618270000000     0.798490000000     0.038450000000    -0.164567   
N13      N      0.423290000000     0.750870000000     0.965310000000    -0.167184   
N14      N      0.320870000000     0.809330000000     0.053200000000    -0.165529   
N15      N      0.529610000000     0.738540000000     0.877510000000    -0.166344   
N16      N      0.621380000000     0.799160000000     0.287750000000    -0.165519   
N17      N      0.691720000000     0.426030000000     0.233540000000    -0.165602   
N18      N      0.567940000000     0.595570000000     0.207110000000    -0.165517   
N19      N      0.679670000000     0.212690000000     0.246570000000    -0.16554    
N20      N      0.542580000000     0.049080000000     0.273290000000    -0.165703   
N21      N      0.564790000000     0.595800000000     0.955980000000    -0.165915   
N22      N      0.687780000000     0.426770000000     0.983740000000    -0.164954   
N23      N      0.675690000000     0.213310000000     0.996810000000    -0.171536   
N24      N      0.539590000000     0.049540000000     0.023860000000    -0.16622    
N25      N      0.176740000000     0.923800000000     0.850550000000    -0.165637   
N26      N      0.041830000000     0.088720000000     0.325010000000    -0.165773   
N27      N      0.867440000000     0.095920000000     0.267020000000    -0.165634   
N28      N      0.744750000000     0.926660000000     0.239030000000    -0.165803   
N29      N      0.811520000000     0.300090000000     0.935040000000    -0.165679   
N30      N      0.902920000000     0.238560000000     0.845640000000    -0.166399   
N31      N      0.177890000000     0.924300000000     0.099840000000    -0.165356   
N32      N      0.041380000000     0.088350000000     0.073710000000    -0.165592   
N33      N      0.864960000000     0.095540000000     0.016460000000    -0.165869   
N34      N      0.741040000000     0.926110000000     0.989470000000    -0.164187   
N35      N      0.903570000000     0.237970000000     0.094690000000    -0.16642    
N36      N      0.815020000000     0.299290000000     0.184580000000    -0.165516   
N37      N      0.757380000000     0.713360000000     0.225710000000    -0.165586   
N38      N      0.892800000000     0.549960000000     0.198700000000    -0.165703   
N39      N      0.067090000000     0.542330000000     0.140980000000    -0.165585   
N40      N      0.190920000000     0.711070000000     0.113100000000    -0.165507   
N41      N      0.923680000000     0.387590000000     0.131820000000    -0.166113   
N42      N      0.818840000000     0.328870000000     0.043940000000    -0.164429   
N43      N      0.753400000000     0.712890000000     0.976180000000    -0.165911   
N44      N      0.889430000000     0.549380000000     0.949660000000    -0.165931   
N45      N      0.065150000000     0.542400000000     0.892470000000    -0.165714   
N46      N      0.189600000000     0.710510000000     0.864010000000    -0.16573    
N47      N      0.821810000000     0.328590000000     0.293840000000    -0.165412   
N48      N      0.922960000000     0.387790000000     0.882360000000    -0.166208   
N49      N      0.391800000000     0.588390000000     0.149780000000    -0.165712   
N50      N      0.255410000000     0.424380000000     0.122950000000    -0.1654     
N51      N      0.242820000000     0.211070000000     0.109630000000    -0.16555    
N52      N      0.365660000000     0.042610000000     0.081740000000    -0.165468   
N53      N      0.009800000000     0.250890000000     0.257790000000    -0.165419   
N54      N      0.112890000000     0.308660000000     0.169710000000    -0.165391   
N55      N      0.118930000000     0.338150000000     0.060670000000    -0.165362   
N56      N      0.027860000000     0.399270000000     0.970630000000    -0.165916   
N57      N      0.390230000000     0.589280000000     0.897860000000    -0.165804   
N58      N      0.255090000000     0.424070000000     0.872000000000    -0.165653   
N59      N      0.366770000000     0.043230000000     0.330170000000    -0.165713   
N60      N      0.243170000000     0.210780000000     0.858300000000    -0.165714   
N61      N      0.008230000000     0.250330000000     0.006540000000    -0.161831   
N62      N      0.112180000000     0.308090000000     0.918630000000    -0.165432   
N63      N      0.030120000000     0.400270000000     0.219790000000    -0.166221   
N64      N      0.119730000000     0.338080000000     0.309870000000    -0.165434   
N65      N      0.313880000000     0.838570000000     0.662290000000    -0.165475   
N66      N      0.403460000000     0.899610000000     0.752510000000    -0.166401   
N67      N      0.312240000000     0.838190000000     0.413190000000    -0.165445   
N68      N      0.401400000000     0.900270000000     0.503270000000    -0.166334   
N69      N      0.613480000000     0.828690000000     0.678980000000    -0.165437   
N70      N      0.507880000000     0.887340000000     0.591170000000    -0.166176   
N71      N      0.610210000000     0.828460000000     0.429240000000    -0.16527    
N72      N      0.507830000000     0.887620000000     0.340910000000    -0.166179   
N73      N      0.320680000000     0.809010000000     0.804180000000    -0.165329   
N74      N      0.425050000000     0.750490000000     0.716680000000    -0.166166   
N75      N      0.529690000000     0.737940000000     0.628610000000    -0.166388   
N76      N      0.618220000000     0.798540000000     0.538400000000    -0.165458   
N77      N      0.423180000000     0.750690000000     0.465300000000    -0.166124   
N78      N      0.320740000000     0.809150000000     0.553200000000    -0.165447   
N79      N      0.529600000000     0.738650000000     0.377460000000    -0.166349   
N80      N      0.621340000000     0.799030000000     0.787790000000    -0.165449   
N81      N      0.691520000000     0.426020000000     0.733580000000    -0.165642   
N82      N      0.567820000000     0.595530000000     0.707050000000    -0.165473   
N83      N      0.679420000000     0.212670000000     0.746680000000    -0.165495   
N84      N      0.542310000000     0.049140000000     0.773500000000    -0.165693   
N85      N      0.564760000000     0.595740000000     0.455870000000    -0.165624   
N86      N      0.687680000000     0.426630000000     0.483540000000    -0.165735   
N87      N      0.675620000000     0.213170000000     0.496610000000    -0.165575   
N88      N      0.539480000000     0.049560000000     0.523900000000    -0.165748   
N89      N      0.177190000000     0.924090000000     0.350890000000    -0.165593   
N90      N      0.041890000000     0.089250000000     0.825580000000    -0.165871   
N91      N      0.867560000000     0.095720000000     0.767300000000    -0.165614   
N92      N      0.744810000000     0.926580000000     0.739160000000    -0.165724   
N93      N      0.811560000000     0.299980000000     0.434840000000    -0.165381   
N94      N      0.903070000000     0.238310000000     0.345490000000    -0.166529   
N95      N      0.177760000000     0.924280000000     0.599810000000    -0.165491   
N96      N      0.041190000000     0.088340000000     0.573730000000    -0.16584    
N97      N      0.864760000000     0.095560000000     0.516480000000    -0.165545   
N98      N      0.740920000000     0.926150000000     0.489410000000    -0.165778   
N99      N      0.903250000000     0.237920000000     0.594760000000    -0.166486   
N100     N      0.814720000000     0.299280000000     0.684640000000    -0.165408   
N101     N      0.757240000000     0.713280000000     0.725700000000    -0.165576   
N102     N      0.892470000000     0.549850000000     0.698590000000    -0.165773   
N103     N      0.066770000000     0.542310000000     0.640870000000    -0.165545   
N104     N      0.190700000000     0.711100000000     0.613120000000    -0.165712   
N105     N      0.923340000000     0.387540000000     0.631630000000    -0.166056   
N106     N      0.818640000000     0.328690000000     0.543750000000    -0.165411   
N107     N      0.753330000000     0.712910000000     0.476140000000    -0.165514   
N108     N      0.889390000000     0.549430000000     0.449590000000    -0.165761   
N109     N      0.065040000000     0.542450000000     0.392400000000    -0.165639   
N110     N      0.189520000000     0.710600000000     0.364010000000    -0.165657   
N111     N      0.821680000000     0.328610000000     0.793890000000    -0.16532    
N112     N      0.922970000000     0.387720000000     0.382350000000    -0.166255   
N113     N      0.391660000000     0.588400000000     0.649730000000    -0.165717   
N114     N      0.255210000000     0.424310000000     0.623070000000    -0.165479   
N115     N      0.242560000000     0.211060000000     0.609630000000    -0.165662   
N116     N      0.365470000000     0.042610000000     0.581760000000    -0.165627   
N117     N      0.009660000000     0.250720000000     0.757890000000    -0.16539    
N118     N      0.112620000000     0.308440000000     0.669770000000    -0.165433   
N119     N      0.118750000000     0.338380000000     0.560750000000    -0.16544    
N120     N      0.027830000000     0.399570000000     0.470690000000    -0.16611    
N121     N      0.390240000000     0.589290000000     0.397740000000    -0.165612   
N122     N      0.255100000000     0.423960000000     0.372080000000    -0.165602   
N123     N      0.366420000000     0.042420000000     0.830570000000    -0.165542   
N124     N      0.242610000000     0.210450000000     0.358930000000    -0.165704   
N125     N      0.007870000000     0.250540000000     0.506690000000    -0.165493   
N126     N      0.111920000000     0.308510000000     0.418850000000    -0.165274   
N127     N      0.029760000000     0.400120000000     0.719590000000    -0.166267   
N128     N      0.119620000000     0.338330000000     0.809700000000    -0.165281   
O1       O      0.252020000000     0.358370000000     0.862990000000    -0.49042    
O2       O      0.182650000000     0.385150000000     0.873250000000    -0.507396   
O3       O      0.186760000000     0.331330000000     0.331830000000    -0.51312    
O4       O      0.175360000000     0.254180000000     0.356210000000    -0.507614   
O5       O      0.181780000000     0.308670000000     0.897940000000    -0.513994   
O6       O      0.246510000000     0.276140000000     0.867890000000    -0.491747   
O7       O      0.110660000000     0.326360000000     0.843400000000    -0.490653   
O8       O      0.107910000000     0.318400000000     0.884620000000    -0.489113   
O9       O      0.252030000000     0.358750000000     0.113830000000    -0.489887   
O10      O      0.182810000000     0.385630000000     0.124180000000    -0.50709    
O11      O      0.186290000000     0.331860000000     0.082510000000    -0.512638   
O12      O      0.246570000000     0.276730000000     0.118670000000    -0.491371   
O13      O      0.182120000000     0.308920000000     0.148840000000    -0.514068   
O14      O      0.175330000000     0.254640000000     0.107110000000    -0.507432   
O15      O      0.110380000000     0.326530000000     0.094410000000    -0.491047   
O16      O      0.108160000000     0.319380000000     0.135740000000    -0.488803   
O17      O      0.054870000000     0.493240000000     0.915970000000    -0.487705   
O18      O      0.988490000000     0.511550000000     0.899470000000    -0.507357   
O19      O      0.963800000000     0.427480000000     0.951760000000    -0.508297   
O20      O      0.966470000000     0.517900000000     0.944540000000    -0.505632   
O21      O      0.989120000000     0.419700000000     0.898660000000    -0.503678   
O22      O      0.900110000000     0.494980000000     0.929520000000    -0.486253   
O23      O      0.040950000000     0.434210000000     0.941680000000    -0.496303   
O24      O      0.912720000000     0.430370000000     0.908630000000    -0.496954   
O25      O      0.057310000000     0.492940000000     0.164390000000    -0.487719   
O26      O      0.990450000000     0.511800000000     0.148340000000    -0.507462   
O27      O      0.966210000000     0.428120000000     0.200740000000    -0.508752   
O28      O      0.969620000000     0.518360000000     0.193340000000    -0.505209   
O29      O      0.990570000000     0.419570000000     0.147650000000    -0.503764   
O30      O      0.902850000000     0.495510000000     0.178560000000    -0.486192   
O31      O      0.043420000000     0.434720000000     0.190690000000    -0.49576    
O32      O      0.914560000000     0.430650000000     0.157940000000    -0.49729    
O33      O      0.875360000000     0.145170000000     0.039640000000    -0.486941   
O34      O      0.941720000000     0.126320000000     0.023610000000    -0.50533    
O35      O      0.967170000000     0.210100000000     0.075800000000    -0.508032   
O36      O      0.964250000000     0.119860000000     0.068460000000    -0.505108   
O37      O      0.941720000000     0.218270000000     0.022370000000    -0.500344   
O38      O      0.030400000000     0.142990000000     0.053600000000    -0.48526    
O39      O      0.889830000000     0.203650000000     0.065600000000    -0.495435   
O40      O      0.017860000000     0.207900000000     0.033030000000    -0.496027   
O41      O      0.876930000000     0.145320000000     0.290370000000    -0.487963   
O42      O      0.943800000000     0.126960000000     0.274510000000    -0.507008   
O43      O      0.967240000000     0.210840000000     0.827070000000    -0.508084   
O44      O      0.964850000000     0.120300000000     0.319560000000    -0.505276   
O45      O      0.943090000000     0.219160000000     0.273650000000    -0.503246   
O46      O      0.031420000000     0.143610000000     0.305040000000    -0.486151   
O47      O      0.890340000000     0.203890000000     0.316390000000    -0.496339   
O48      O      0.019240000000     0.208100000000     0.284140000000    -0.496584   
O49      O      0.678830000000     0.279050000000     0.987730000000    -0.490817   
O50      O      0.748200000000     0.252150000000     0.998290000000    -0.510571   
O51      O      0.744220000000     0.306320000000     0.956620000000    -0.511402   
O52      O      0.755180000000     0.383230000000     0.981230000000    -0.508067   
O53      O      0.749170000000     0.328490000000     0.022990000000    -0.50698    
O54      O      0.684220000000     0.361030000000     0.992750000000    -0.492857   
O55      O      0.820210000000     0.311530000000     0.968780000000    -0.491954   
O56      O      0.822950000000     0.318460000000     0.009980000000    -0.481283   
O57      O      0.683080000000     0.278320000000     0.237340000000    -0.489976   
O58      O      0.752260000000     0.251470000000     0.248110000000    -0.506937   
O59      O      0.748140000000     0.305680000000     0.206330000000    -0.513213   
O60      O      0.759290000000     0.382610000000     0.230950000000    -0.507349   
O61      O      0.752730000000     0.327850000000     0.272630000000    -0.514178   
O62      O      0.688360000000     0.360210000000     0.242410000000    -0.491396   
O63      O      0.824310000000     0.310630000000     0.218340000000    -0.491559   
O64      O      0.826880000000     0.318030000000     0.259890000000    -0.488612   
O65      O      0.400860000000     0.643660000000     0.918080000000    -0.486246   
O66      O      0.467340000000     0.620810000000     0.903500000000    -0.505281   
O67      O      0.489720000000     0.719210000000     0.949450000000    -0.503905   
O68      O      0.555410000000     0.645640000000     0.932780000000    -0.488213   
O69      O      0.542210000000     0.704210000000     0.906710000000    -0.49602    
O70      O      0.488460000000     0.626670000000     0.948540000000    -0.507452   
O71      O      0.413440000000     0.708070000000     0.939060000000    -0.497774   
O72      O      0.465180000000     0.710850000000     0.896200000000    -0.507899   
O73      O      0.557710000000     0.645600000000     0.184050000000    -0.487355   
O74      O      0.491200000000     0.626110000000     0.199940000000    -0.506558   
O75      O      0.466040000000     0.710100000000     0.147690000000    -0.507774   
O76      O      0.402720000000     0.642760000000     0.169980000000    -0.485784   
O77      O      0.415340000000     0.707830000000     0.190440000000    -0.497634   
O78      O      0.468900000000     0.620130000000     0.155110000000    -0.504628   
O79      O      0.543380000000     0.703870000000     0.157900000000    -0.495727   
O80      O      0.491480000000     0.718390000000     0.201110000000    -0.503239   
O81      O      0.750050000000     0.778410000000     0.985490000000    -0.490363   
O82      O      0.680760000000     0.751320000000     0.974850000000    -0.506809   
O83      O      0.685070000000     0.805110000000     0.016640000000    -0.506075   
O84      O      0.673650000000     0.882230000000     0.992090000000    -0.509121   
O85      O      0.679730000000     0.827900000000     0.950330000000    -0.512514   
O86      O      0.744500000000     0.860440000000     0.980480000000    -0.490872   
O87      O      0.608850000000     0.809910000000     0.004690000000    -0.483674   
O88      O      0.605810000000     0.817610000000     0.963260000000    -0.488661   
O89      O      0.754180000000     0.778940000000     0.234900000000    -0.49071    
O90      O      0.684770000000     0.751800000000     0.224420000000    -0.507667   
O91      O      0.688700000000     0.805540000000     0.266150000000    -0.512663   
O92      O      0.677540000000     0.882640000000     0.241560000000    -0.508117   
O93      O      0.683360000000     0.828480000000     0.199770000000    -0.513853   
O94      O      0.748520000000     0.861030000000     0.229980000000    -0.491679   
O95      O      0.612720000000     0.810610000000     0.253990000000    -0.491533   
O96      O      0.609750000000     0.817760000000     0.212870000000    -0.488587   
O97      O      0.374730000000     0.992900000000     0.058580000000    -0.488188   
O98      O      0.441930000000     0.011910000000     0.074400000000    -0.507377   
O99      O      0.465330000000     0.928180000000     0.022250000000    -0.505906   
O100     O      0.462510000000     0.018060000000     0.029370000000    -0.503571   
O101     O      0.441030000000     0.919290000000     0.075340000000    -0.503618   
O102     O      0.529090000000     0.995330000000     0.044270000000    -0.486082   
O103     O      0.388130000000     0.934610000000     0.032260000000    -0.494125   
O104     O      0.517020000000     0.930580000000     0.064970000000    -0.497381   
O105     O      0.465260000000     0.017690000000     0.278450000000    -0.504717   
O106     O      0.531270000000     0.994970000000     0.293730000000    -0.485949   
O107     O      0.441710000000     0.919380000000     0.824720000000    -0.503489   
O108     O      0.443060000000     0.011980000000     0.323450000000    -0.506716   
O109     O      0.467410000000     0.927700000000     0.271520000000    -0.507654   
O110     O      0.376440000000     0.993350000000     0.307150000000    -0.488148   
O111     O      0.518120000000     0.930310000000     0.314580000000    -0.497404   
O112     O      0.390160000000     0.934190000000     0.281450000000    -0.495873   
O113     O      0.186060000000     0.776040000000     0.854630000000    -0.492032   
O114     O      0.256790000000     0.754540000000     0.866830000000    -0.507571   
O115     O      0.250890000000     0.809460000000     0.324850000000    -0.513985   
O116     O      0.249680000000     0.885560000000     0.349590000000    -0.507759   
O117     O      0.245230000000     0.831530000000     0.891070000000    -0.513113   
O118     O      0.180120000000     0.858090000000     0.859650000000    -0.49045    
O119     O      0.324650000000     0.819250000000     0.838170000000    -0.488981   
O120     O      0.321430000000     0.826870000000     0.879400000000    -0.491385   
O121     O      0.187220000000     0.776790000000     0.104090000000    -0.49116    
O122     O      0.258310000000     0.754970000000     0.115820000000    -0.507349   
O123     O      0.251620000000     0.809510000000     0.074050000000    -0.51359    
O124     O      0.250640000000     0.886030000000     0.098620000000    -0.506991   
O125     O      0.246930000000     0.831950000000     0.140330000000    -0.513126   
O126     O      0.181510000000     0.858630000000     0.108990000000    -0.489807   
O127     O      0.325610000000     0.820090000000     0.087150000000    -0.488702   
O128     O      0.323030000000     0.827180000000     0.128590000000    -0.491658   
O129     O      0.251970000000     0.358210000000     0.363170000000    -0.490224   
O130     O      0.182600000000     0.385110000000     0.373360000000    -0.507437   
O131     O      0.186740000000     0.331650000000     0.831620000000    -0.512699   
O132     O      0.175700000000     0.254360000000     0.855800000000    -0.50756    
O133     O      0.181570000000     0.308940000000     0.398190000000    -0.513579   
O134     O      0.246230000000     0.275970000000     0.368240000000    -0.491823   
O135     O      0.110640000000     0.326250000000     0.343570000000    -0.491125   
O136     O      0.107720000000     0.318530000000     0.384820000000    -0.488998   
O137     O      0.251780000000     0.358690000000     0.613920000000    -0.490074   
O138     O      0.182580000000     0.385580000000     0.624290000000    -0.507003   
O139     O      0.186080000000     0.331960000000     0.582590000000    -0.512796   
O140     O      0.246290000000     0.276690000000     0.618720000000    -0.491463   
O141     O      0.181860000000     0.308830000000     0.648910000000    -0.51381    
O142     O      0.175080000000     0.254650000000     0.607110000000    -0.507549   
O143     O      0.110140000000     0.326610000000     0.594470000000    -0.491216   
O144     O      0.107880000000     0.319250000000     0.635810000000    -0.488667   
O145     O      0.054830000000     0.493220000000     0.415870000000    -0.487484   
O146     O      0.988380000000     0.511640000000     0.399440000000    -0.507337   
O147     O      0.963760000000     0.427570000000     0.451740000000    -0.507758   
O148     O      0.966430000000     0.517970000000     0.444470000000    -0.504929   
O149     O      0.989110000000     0.419650000000     0.398650000000    -0.503881   
O150     O      0.900060000000     0.495010000000     0.429470000000    -0.48601    
O151     O      0.040930000000     0.434400000000     0.441700000000    -0.495763   
O152     O      0.912710000000     0.430370000000     0.408590000000    -0.497058   
O153     O      0.056940000000     0.492870000000     0.664260000000    -0.487624   
O154     O      0.990110000000     0.511770000000     0.648200000000    -0.507688   
O155     O      0.965830000000     0.428000000000     0.700560000000    -0.508901   
O156     O      0.969260000000     0.518230000000     0.693210000000    -0.505405   
O157     O      0.990200000000     0.419530000000     0.647470000000    -0.503631   
O158     O      0.902480000000     0.495460000000     0.678410000000    -0.486385   
O159     O      0.043020000000     0.434620000000     0.690510000000    -0.495995   
O160     O      0.914180000000     0.430600000000     0.657760000000    -0.497412   
O161     O      0.875120000000     0.145140000000     0.539700000000    -0.487353   
O162     O      0.941500000000     0.126370000000     0.523650000000    -0.506881   
O163     O      0.966870000000     0.210060000000     0.575880000000    -0.507984   
O164     O      0.964050000000     0.119860000000     0.568530000000    -0.505208   
O165     O      0.941400000000     0.218310000000     0.522470000000    -0.502968   
O166     O      0.030140000000     0.142980000000     0.553630000000    -0.48601    
O167     O      0.889530000000     0.203590000000     0.565680000000    -0.495763   
O168     O      0.017540000000     0.208020000000     0.533140000000    -0.496444   
O169     O      0.876900000000     0.145270000000     0.790590000000    -0.4878     
O170     O      0.943880000000     0.126790000000     0.774830000000    -0.507164   
O171     O      0.967370000000     0.210590000000     0.326910000000    -0.508355   
O172     O      0.964800000000     0.120520000000     0.819900000000    -0.505481   
O173     O      0.942970000000     0.219100000000     0.773830000000    -0.503373   
O174     O      0.031380000000     0.143840000000     0.805410000000    -0.486119   
O175     O      0.890200000000     0.203970000000     0.816580000000    -0.496044   
O176     O      0.019140000000     0.208020000000     0.784280000000    -0.496538   
O177     O      0.678760000000     0.278880000000     0.487500000000    -0.490695   
O178     O      0.748120000000     0.252010000000     0.498080000000    -0.507744   
O179     O      0.744220000000     0.306210000000     0.456400000000    -0.512725   
O180     O      0.755100000000     0.383100000000     0.481040000000    -0.508111   
O181     O      0.749010000000     0.328340000000     0.522790000000    -0.513703   
O182     O      0.684120000000     0.360870000000     0.492530000000    -0.491766   
O183     O      0.820170000000     0.311390000000     0.468600000000    -0.491652   
O184     O      0.822820000000     0.318320000000     0.509800000000    -0.488962   
O185     O      0.682830000000     0.278310000000     0.737450000000    -0.490157   
O186     O      0.752040000000     0.251430000000     0.748160000000    -0.506998   
O187     O      0.747860000000     0.305640000000     0.706400000000    -0.513224   
O188     O      0.759060000000     0.382580000000     0.731000000000    -0.507239   
O189     O      0.752550000000     0.327830000000     0.772700000000    -0.514232   
O190     O      0.688130000000     0.360210000000     0.742470000000    -0.491245   
O191     O      0.824040000000     0.310610000000     0.718400000000    -0.491631   
O192     O      0.826670000000     0.318020000000     0.759940000000    -0.488794   
O193     O      0.400830000000     0.643720000000     0.417940000000    -0.485832   
O194     O      0.467370000000     0.620780000000     0.403430000000    -0.505061   
O195     O      0.489650000000     0.719170000000     0.449390000000    -0.50358    
O196     O      0.555390000000     0.645630000000     0.432690000000    -0.487812   
O197     O      0.542180000000     0.704260000000     0.406650000000    -0.496065   
O198     O      0.488420000000     0.626620000000     0.448430000000    -0.506741   
O199     O      0.413380000000     0.707950000000     0.439020000000    -0.497613   
O200     O      0.465160000000     0.710930000000     0.396140000000    -0.507948   
O201     O      0.557630000000     0.645540000000     0.683970000000    -0.48757    
O202     O      0.491110000000     0.626120000000     0.699870000000    -0.50689    
O203     O      0.466010000000     0.710090000000     0.647620000000    -0.507873   
O204     O      0.402640000000     0.642780000000     0.669920000000    -0.485902   
O205     O      0.415320000000     0.707860000000     0.690360000000    -0.497712   
O206     O      0.468790000000     0.620120000000     0.655040000000    -0.504752   
O207     O      0.543350000000     0.703840000000     0.657830000000    -0.495638   
O208     O      0.491470000000     0.718390000000     0.701030000000    -0.503179   
O209     O      0.749980000000     0.778430000000     0.485420000000    -0.489918   
O210     O      0.680670000000     0.751340000000     0.474810000000    -0.507008   
O211     O      0.685010000000     0.805150000000     0.516590000000    -0.513144   
O212     O      0.673550000000     0.882250000000     0.492030000000    -0.507382   
O213     O      0.679680000000     0.827890000000     0.450270000000    -0.513884   
O214     O      0.744420000000     0.860490000000     0.480430000000    -0.491375   
O215     O      0.608790000000     0.809930000000     0.504630000000    -0.491585   
O216     O      0.605740000000     0.817660000000     0.463210000000    -0.488229   
O217     O      0.754120000000     0.778850000000     0.734920000000    -0.490568   
O218     O      0.684670000000     0.751770000000     0.724440000000    -0.507586   
O219     O      0.688660000000     0.805450000000     0.766190000000    -0.512793   
O220     O      0.677520000000     0.882600000000     0.741610000000    -0.508101   
O221     O      0.683350000000     0.828490000000     0.699830000000    -0.513979   
O222     O      0.748550000000     0.860960000000     0.730090000000    -0.491736   
O223     O      0.612680000000     0.810540000000     0.754030000000    -0.491478   
O224     O      0.609730000000     0.817770000000     0.712920000000    -0.488563   
O225     O      0.374630000000     0.992930000000     0.558590000000    -0.48861    
O226     O      0.441770000000     0.011900000000     0.574470000000    -0.507267   
O227     O      0.465320000000     0.928170000000     0.522320000000    -0.50851    
O228     O      0.462410000000     0.018060000000     0.529410000000    -0.505131   
O229     O      0.440980000000     0.919330000000     0.575410000000    -0.503508   
O230     O      0.529000000000     0.995400000000     0.544340000000    -0.486257   
O231     O      0.388110000000     0.934530000000     0.532340000000    -0.495992   
O232     O      0.516970000000     0.930640000000     0.565040000000    -0.497694   
O233     O      0.465020000000     0.017700000000     0.778660000000    -0.504988   
O234     O      0.531110000000     0.994880000000     0.793840000000    -0.486189   
O235     O      0.441740000000     0.919740000000     0.324700000000    -0.503574   
O236     O      0.442840000000     0.011510000000     0.823670000000    -0.506874   
O237     O      0.467320000000     0.927630000000     0.771570000000    -0.507837   
O238     O      0.376270000000     0.992980000000     0.807310000000    -0.48801    
O239     O      0.518070000000     0.930100000000     0.814620000000    -0.49748    
O240     O      0.390070000000     0.934090000000     0.781490000000    -0.495881   
O241     O      0.186050000000     0.776190000000     0.354700000000    -0.491775   
O242     O      0.256790000000     0.754570000000     0.366840000000    -0.507811   
O243     O      0.250890000000     0.809290000000     0.824760000000    -0.513931   
O244     O      0.249400000000     0.885440000000     0.849400000000    -0.507647   
O245     O      0.245340000000     0.831350000000     0.391180000000    -0.513199   
O246     O      0.180350000000     0.858280000000     0.359830000000    -0.49058    
O247     O      0.324690000000     0.819300000000     0.338250000000    -0.489186   
O248     O      0.321530000000     0.826790000000     0.379500000000    -0.491592   
O249     O      0.187070000000     0.776810000000     0.604090000000    -0.491427   
O250     O      0.258130000000     0.754970000000     0.615840000000    -0.507466   
O251     O      0.251500000000     0.809410000000     0.574050000000    -0.513853   
O252     O      0.250510000000     0.886000000000     0.598580000000    -0.5071     
O253     O      0.246840000000     0.831960000000     0.640330000000    -0.513119   
O254     O      0.181400000000     0.858630000000     0.608990000000    -0.489924   
O255     O      0.325480000000     0.820030000000     0.587150000000    -0.488598   
O256     O      0.322930000000     0.827200000000     0.628580000000    -0.491658   


